@<TRIPOS>MOLECULE
DMS_1_A_401
 10 9 0 0 0
SMALL
NO_CHARGES

@<TRIPOS>ATOM
      1 S           7.0440  -28.0530   21.4670 S.o    401  DMS401      0.0000
      2 O           7.7780  -27.1070   22.3240 O.2    401  DMS401      0.0000
      3 C1          5.7060  -28.6900   22.4380 C.3    401  DMS401      0.0000
      4 C2          6.1170  -27.0830   20.3260 C.3    401  DMS401      0.0000
      5 H           5.0431  -29.3120   21.8026 H      401  DMS401      0.0000
      6 H           5.1195  -27.8581   22.8792 H      401  DMS401      0.0000
      7 H           6.1120  -29.3195   23.2560 H      401  DMS401      0.0000
      8 H           5.4446  -27.7372   19.7344 H      401  DMS401      0.0000
      9 H           6.8110  -26.5644   19.6334 H      401  DMS401      0.0000
     10 H           5.5121  -26.3250   20.8648 H      401  DMS401      0.0000
@<TRIPOS>BOND
     1     1     2    2
     2     1     3    1
     3     1     4    1
     4     3     5    1
     5     3     6    1
     6     3     7    1
     7     4     8    1
     8     4     9    1
     9     4    10    1

