@<TRIPOS>MOLECULE
DMS_1_A_402
 10 9 0 0 0
SMALL
NO_CHARGES

@<TRIPOS>ATOM
      1 S           6.1590   -0.9710   -6.2410 S.o    402  DMS402      0.0000
      2 O           7.1730   -0.7080   -7.2920 O.2    402  DMS402      0.0000
      3 C1          7.0110   -0.9210   -4.6690 C.3    402  DMS402      0.0000
      4 C2          5.8010   -2.6960   -6.2420 C.3    402  DMS402      0.0000
      5 H           6.3196   -1.2239   -3.8564 H      402  DMS402      0.0000
      6 H           7.3595    0.1140   -4.4757 H      402  DMS402      0.0000
      7 H           7.8877   -1.6008   -4.6837 H      402  DMS402      0.0000
      8 H           5.1412   -2.9461   -5.3861 H      402  DMS402      0.0000
      9 H           6.7374   -3.2868   -6.1719 H      402  DMS402      0.0000
     10 H           5.2787   -2.9616   -7.1838 H      402  DMS402      0.0000
@<TRIPOS>BOND
     1     1     2    2
     2     1     3    1
     3     1     4    1
     4     3     5    1
     5     3     6    1
     6     3     7    1
     7     4     8    1
     8     4     9    1
     9     4    10    1

