@<TRIPOS>MOLECULE
DMS_1_A_403
 10 9 0 0 0
SMALL
NO_CHARGES

@<TRIPOS>ATOM
      1 S           2.5000  -18.7400    8.0720 S.o    403  DMS403      0.0000
      2 O           3.7070  -18.9150    8.9900 O.2    403  DMS403      0.0000
      3 C1          1.1590  -18.2420    9.1380 C.3    403  DMS403      0.0000
      4 C2          1.9110  -20.3770    7.7610 C.3    403  DMS403      0.0000
      5 H           0.2044  -18.2539    8.5734 H      403  DMS403      0.0000
      6 H           1.3460  -17.2111    9.5023 H      403  DMS403      0.0000
      7 H           1.0828  -18.9239   10.0098 H      403  DMS403      0.0000
      8 H           0.9359  -20.3343    7.2341 H      403  DMS403      0.0000
      9 H           1.7928  -20.9358    8.7121 H      403  DMS403      0.0000
     10 H           2.6394  -20.9125    7.1184 H      403  DMS403      0.0000
@<TRIPOS>BOND
     1     1     2    2
     2     1     3    1
     3     1     4    1
     4     3     5    1
     5     3     6    1
     6     3     7    1
     7     4     8    1
     8     4     9    1
     9     4    10    1

