@<TRIPOS>MOLECULE
DMS_2_A_405
 10 9 0 0 0
SMALL
NO_CHARGES

@<TRIPOS>ATOM
      1 S          -5.6470    0.4000  -18.0710 S.o    405  DMS405      0.0000
      2 O          -6.8070    1.0460  -17.3790 O.2    405  DMS405      0.0000
      3 C1         -4.8470    1.6860  -19.0060 C.3    405  DMS405      0.0000
      4 C2         -6.3300   -0.4810  -19.4480 C.3    405  DMS405      0.0000
      5 H          -4.0671    1.2461  -19.6607 H      405  DMS405      0.0000
      6 H          -4.3658    2.4005  -18.3073 H      405  DMS405      0.0000
      7 H          -5.5872    2.2316  -19.6265 H      405  DMS405      0.0000
      8 H          -5.5131   -0.8651  -20.0928 H      405  DMS405      0.0000
      9 H          -6.9909    0.1815  -20.0438 H      405  DMS405      0.0000
     10 H          -6.9238   -1.3403  -19.0748 H      405  DMS405      0.0000
@<TRIPOS>BOND
     1     1     2    2
     2     1     3    1
     3     1     4    1
     4     3     5    1
     5     3     6    1
     6     3     7    1
     7     4     8    1
     8     4     9    1
     9     4    10    1

