@<TRIPOS>MOLECULE
NVU_1_A_201
 19 20 0 0 0
SMALL
NO_CHARGES

@<TRIPOS>ATOM
      1 CA        -43.9210  -31.6280    0.6280 C.3    201  NVU201      0.0000
      2 C         -43.4130  -32.2730    1.9060 C.2    201  NVU201      0.0000
      3 O         -43.3410  -33.5460    1.9660 O.co2  201  NVU201     -0.5000
      4 OXT       -43.0590  -31.6040    2.8720 O.co2  201  NVU201     -0.5000
      5 CB        -44.0080  -32.5860   -0.5300 C.ar   201  NVU201      0.0000
      6 CG        -45.0120  -33.5870   -0.8210 C.ar   201  NVU201      0.0000
      7 CD1       -46.1910  -33.9520   -0.2740 C.ar   201  NVU201      0.0000
      8 CE1       -46.9690  -34.9220   -0.7930 C.ar   201  NVU201      0.0000
      9 CZ        -46.6020  -35.5970   -1.8900 C.ar   201  NVU201      0.0000
     10 CE2       -45.4170  -35.2190   -2.5480 C.ar   201  NVU201      0.0000
     11 CD2       -44.5960  -34.2040   -1.9780 C.ar   201  NVU201      0.0000
     12 OH        -43.5320  -33.5950   -2.4010 O.3    201  NVU201      0.0000
     13 NAL       -43.1540  -32.6880   -1.5130 N.ar   201  NVU201      0.0000
     14 H         -43.2584  -30.7769    0.3514 H      201  NVU201      0.0000
     15 H         -44.9294  -31.1944    0.8150 H      201  NVU201      0.0000
     16 H         -46.5339  -33.4323    0.6375 H      201  NVU201      0.0000
     17 H         -47.9217  -35.1764   -0.2964 H      201  NVU201      0.0000
     18 H         -47.2269  -36.4104   -2.2954 H      201  NVU201      0.0000
     19 H         -45.1184  -35.7019   -3.4903 H      201  NVU201      0.0000
@<TRIPOS>BOND
     1     1     2    1
     2     1     5    1
     3     1    14    1
     4     1    15    1
     5     2     3   ar
     6     2     4   ar
     7     5     6   ar
     8     5    13   ar
     9     6     7   ar
    10     6    11   ar
    11     7     8   ar
    12     7    16    1
    13     8     9   ar
    14     8    17    1
    15     9    10   ar
    16     9    18    1
    17    10    11   ar
    18    10    19    1
    19    11    12   ar
    20    12    13   ar

