@<TRIPOS>MOLECULE
DMS_2_A_402
 10 9 0 0 0
SMALL
NO_CHARGES

@<TRIPOS>ATOM
      1 S          -6.1490   -1.0580    6.3180 S.o    402  DMS402      0.0000
      2 O          -7.0650   -0.8140    7.4560 O.2    402  DMS402      0.0000
      3 C1         -7.1260   -0.9480    4.8140 C.3    402  DMS402      0.0000
      4 C2         -5.8210   -2.7910    6.2650 C.3    402  DMS402      0.0000
      5 H          -6.5065   -1.2422    3.9422 H      402  DMS402      0.0000
      6 H          -7.4672    0.0985    4.6764 H      402  DMS402      0.0000
      7 H          -8.0117   -1.6125    4.8822 H      402  DMS402      0.0000
      8 H          -5.2369   -3.0368    5.3547 H      402  DMS402      0.0000
      9 H          -6.7705   -3.3647    6.2605 H      402  DMS402      0.0000
     10 H          -5.2296   -3.0805    7.1576 H      402  DMS402      0.0000
@<TRIPOS>BOND
     1     1     2    2
     2     1     3    1
     3     1     4    1
     4     3     5    1
     5     3     6    1
     6     3     7    1
     7     4     8    1
     8     4     9    1
     9     4    10    1

