DMS_1_A_401
  -ISIS-            3D

 10  9  0  0  0  0  0  0  0  0  1 V2000
    7.0150  -28.0700   21.6710 S   0  0  0  0  0
    7.7800  -27.0710   22.4420 O   0  0  0  0  0
    5.7210  -28.6940   22.7320 C   0  0  0  0  0
    5.9690  -27.1680   20.5800 C   0  0  0  0  0
    5.0383  -29.3465   22.1503 H   0  0  0  0  0
    5.1455  -27.8550   23.1745 H   0  0  0  0  0
    6.1753  -29.2901   23.5496 H   0  0  0  0  0
    5.2746  -27.8605   20.0619 H   0  0  0  0  0
    6.5895  -26.6522   19.8188 H   0  0  0  0  0
    5.3840  -26.4092   21.1396 H   0  0  0  0  0
  1  2  2  0  0  0
  1  3  1  0  0  0
  1  4  1  0  0  0
  3  5  1  0  0  0
  3  6  1  0  0  0
  3  7  1  0  0  0
  4  8  1  0  0  0
  4  9  1  0  0  0
  4 10  1  0  0  0
M  END
$$$$
