@<TRIPOS>MOLECULE
DMS_2_A_401
 10 9 0 0 0
SMALL
NO_CHARGES

@<TRIPOS>ATOM
      1 S          -7.0930  -28.0810  -21.4110 S.o    401  DMS401      0.0000
      2 O          -7.7170  -27.1630  -22.3580 O.2    401  DMS401      0.0000
      3 C1         -5.8130  -28.8350  -22.3590 C.3    401  DMS401      0.0000
      4 C2         -6.0800  -27.1000  -20.3740 C.3    401  DMS401      0.0000
      5 H          -5.1653  -29.4473  -21.6987 H      401  DMS401      0.0000
      6 H          -5.1961  -28.0653  -22.8670 H      401  DMS401      0.0000
      7 H          -6.2644  -29.4974  -23.1259 H      401  DMS401      0.0000
      8 H          -5.4379  -27.7512  -19.7464 H      401  DMS401      0.0000
      9 H          -6.7205  -26.4862  -19.7080 H      401  DMS401      0.0000
     10 H          -5.4394  -26.4243  -20.9771 H      401  DMS401      0.0000
@<TRIPOS>BOND
     1     1     2    2
     2     1     3    1
     3     1     4    1
     4     3     5    1
     5     3     6    1
     6     3     7    1
     7     4     8    1
     8     4     9    1
     9     4    10    1

