@<TRIPOS>MOLECULE
DMS_1_A_403
 10 9 0 0 0
SMALL
NO_CHARGES

@<TRIPOS>ATOM
      1 S           2.3530  -19.0250    8.1160 S.o    403  DMS403      0.0000
      2 O           3.6070  -18.8050    8.8800 O.2    403  DMS403      0.0000
      3 C1          1.1920  -17.9390    8.8880 C.3    403  DMS403      0.0000
      4 C2          1.7190  -20.5160    8.8560 C.3    403  DMS403      0.0000
      5 H           0.1648  -18.1765    8.5430 H      403  DMS403      0.0000
      6 H           1.4270  -16.8923    8.6056 H      403  DMS403      0.0000
      7 H           1.2405  -18.0310    9.9925 H      403  DMS403      0.0000
      8 H           0.6783  -20.6929    8.5151 H      403  DMS403      0.0000
      9 H           1.7378  -20.4444    9.9630 H      403  DMS403      0.0000
     10 H           2.3462  -21.3751    8.5410 H      403  DMS403      0.0000
@<TRIPOS>BOND
     1     1     2    2
     2     1     3    1
     3     1     4    1
     4     3     5    1
     5     3     6    1
     6     3     7    1
     7     4     8    1
     8     4     9    1
     9     4    10    1

