@<TRIPOS>MOLECULE
DMS_2_A_404
 10 9 0 0 0
SMALL
NO_CHARGES

@<TRIPOS>ATOM
      1 S          -8.7960   -4.7860  -27.0250 S.o    404  DMS404      0.0000
      2 O          -7.5710   -5.6570  -27.0400 O.2    404  DMS404      0.0000
      3 C1         -8.2530   -3.2050  -26.4370 C.3    404  DMS404      0.0000
      4 C2         -9.7280   -5.3020  -25.6090 C.3    404  DMS404      0.0000
      5 H          -9.1298   -2.5494  -26.2579 H      404  DMS404      0.0000
      6 H          -7.6027   -2.7324  -27.2013 H      404  DMS404      0.0000
      7 H          -7.6793   -3.3192  -25.4948 H      404  DMS404      0.0000
      8 H         -10.5771   -4.6073  -25.4446 H      404  DMS404      0.0000
      9 H          -9.0837   -5.3168  -24.7065 H      404  DMS404      0.0000
     10 H         -10.1283   -6.3215  -25.7843 H      404  DMS404      0.0000
@<TRIPOS>BOND
     1     1     2    2
     2     1     3    1
     3     1     4    1
     4     3     5    1
     5     3     6    1
     6     3     7    1
     7     4     8    1
     8     4     9    1
     9     4    10    1

