@<TRIPOS>MOLECULE
DMS_2_A_403
 10 9 0 0 0
SMALL
NO_CHARGES

@<TRIPOS>ATOM
      1 S          -2.3120  -18.9160   -7.9240 S.o    403  DMS403      0.0000
      2 O          -3.6490  -18.6810   -8.6760 O.2    403  DMS403      0.0000
      3 C1         -1.0730  -18.1110   -8.9370 C.3    403  DMS403      0.0000
      4 C2         -1.8890  -20.5820   -8.3510 C.3    403  DMS403      0.0000
      5 H          -0.0596  -18.3879   -8.5812 H      403  DMS403      0.0000
      6 H          -1.1939  -17.0115   -8.8559 H      403  DMS403      0.0000
      7 H          -1.1879  -18.4099   -9.9992 H      403  DMS403      0.0000
      8 H          -0.8557  -20.8061   -8.0155 H      403  DMS403      0.0000
      9 H          -1.9617  -20.7334   -9.4478 H      403  DMS403      0.0000
     10 H          -2.5875  -21.2791   -7.8443 H      403  DMS403      0.0000
@<TRIPOS>BOND
     1     1     2    2
     2     1     3    1
     3     1     4    1
     4     3     5    1
     5     3     6    1
     6     3     7    1
     7     4     8    1
     8     4     9    1
     9     4    10    1

