DMS_1_A_403
  -ISIS-            3D

 10  9  0  0  0  0  0  0  0  0  1 V2000
    2.3120  -18.9160    7.9240 S   0  0  0  0  0
    3.6490  -18.6810    8.6760 O   0  0  0  0  0
    1.0730  -18.1110    8.9370 C   0  0  0  0  0
    1.8890  -20.5820    8.3510 C   0  0  0  0  0
    0.0596  -18.3879    8.5812 H   0  0  0  0  0
    1.1939  -17.0115    8.8559 H   0  0  0  0  0
    1.1879  -18.4099    9.9992 H   0  0  0  0  0
    0.8557  -20.8061    8.0155 H   0  0  0  0  0
    1.9617  -20.7334    9.4478 H   0  0  0  0  0
    2.5875  -21.2791    7.8443 H   0  0  0  0  0
  1  2  2  0  0  0
  1  3  1  0  0  0
  1  4  1  0  0  0
  3  5  1  0  0  0
  3  6  1  0  0  0
  3  7  1  0  0  0
  4  8  1  0  0  0
  4  9  1  0  0  0
  4 10  1  0  0  0
M  END
$$$$
