@<TRIPOS>MOLECULE
DMS_1_A_401
 10 9 0 0 0
SMALL
NO_CHARGES

@<TRIPOS>ATOM
      1 S           7.0000  -28.0350   21.6070 S.o    401  DMS401      0.0000
      2 O           7.7700  -27.0360   22.4040 O.2    401  DMS401      0.0000
      3 C1          5.7520  -28.6740   22.6910 C.3    401  DMS401      0.0000
      4 C2          5.9540  -27.1020   20.5400 C.3    401  DMS401      0.0000
      5 H           5.0520  -29.3184   22.1209 H      401  DMS401      0.0000
      6 H           5.1878  -27.8441   23.1638 H      401  DMS401      0.0000
      7 H           6.2320  -29.2822   23.4847 H      401  DMS401      0.0000
      8 H           5.2487  -27.7792   20.0163 H      401  DMS401      0.0000
      9 H           6.5735  -26.5784   19.7835 H      401  DMS401      0.0000
     10 H           5.3804  -26.3495   21.1191 H      401  DMS401      0.0000
@<TRIPOS>BOND
     1     1     2    2
     2     1     3    1
     3     1     4    1
     4     3     5    1
     5     3     6    1
     6     3     7    1
     7     4     8    1
     8     4     9    1
     9     4    10    1

