@<TRIPOS>MOLECULE
DMS_1_A_404
 10 9 0 0 0
SMALL
NO_CHARGES

@<TRIPOS>ATOM
      1 S           5.5980    0.4260   18.2310 S.o    404  DMS404      0.0000
      2 O           6.7350    1.0840   17.4800 O.2    404  DMS404      0.0000
      3 C1          4.7320    1.7290   19.0810 C.3    404  DMS404      0.0000
      4 C2          6.3420   -0.3110   19.6510 C.3    404  DMS404      0.0000
      5 H           3.9828    1.2939   19.7736 H      404  DMS404      0.0000
      6 H           4.2066    2.3633   18.3382 H      404  DMS404      0.0000
      7 H           5.4443    2.3584   19.6530 H      404  DMS404      0.0000
      8 H           5.5558   -0.6925   20.3343 H      404  DMS404      0.0000
      9 H           6.9714    0.4279   20.1884 H      404  DMS404      0.0000
     10 H           6.9791   -1.1610   19.3318 H      404  DMS404      0.0000
@<TRIPOS>BOND
     1     1     2    2
     2     1     3    1
     3     1     4    1
     4     3     5    1
     5     3     6    1
     6     3     7    1
     7     4     8    1
     8     4     9    1
     9     4    10    1

