@<TRIPOS>MOLECULE
DMS_2_A_402
 10 9 0 0 0
SMALL
NO_CHARGES

@<TRIPOS>ATOM
      1 S          -6.1540   -0.9550    6.2440 S.o    402  DMS402      0.0000
      2 O          -7.1080   -0.7070    7.3520 O.2    402  DMS402      0.0000
      3 C1         -7.1220   -0.9890    4.7250 C.3    402  DMS402      0.0000
      4 C2         -5.7620   -2.6780    6.2880 C.3    402  DMS402      0.0000
      5 H          -6.4801   -1.3083    3.8784 H      402  DMS402      0.0000
      6 H          -7.5109    0.0288    4.5179 H      402  DMS402      0.0000
      7 H          -7.9762   -1.6893    4.8293 H      402  DMS402      0.0000
      8 H          -5.1600   -2.9511    5.3972 H      402  DMS402      0.0000
      9 H          -6.6895   -3.2862    6.3075 H      402  DMS402      0.0000
     10 H          -5.1692   -2.8966    7.1998 H      402  DMS402      0.0000
@<TRIPOS>BOND
     1     1     2    2
     2     1     3    1
     3     1     4    1
     4     3     5    1
     5     3     6    1
     6     3     7    1
     7     4     8    1
     8     4     9    1
     9     4    10    1

