DMS_1_A_404
  -ISIS-            3D

 10  9  0  0  0  0  0  0  0  0  1 V2000
    5.5980    0.4260   18.2310 S   0  0  0  0  0
    6.7350    1.0840   17.4800 O   0  0  0  0  0
    4.7320    1.7290   19.0810 C   0  0  0  0  0
    6.3420   -0.3110   19.6510 C   0  0  0  0  0
    3.9828    1.2939   19.7736 H   0  0  0  0  0
    4.2066    2.3633   18.3382 H   0  0  0  0  0
    5.4443    2.3584   19.6530 H   0  0  0  0  0
    5.5558   -0.6925   20.3343 H   0  0  0  0  0
    6.9714    0.4279   20.1884 H   0  0  0  0  0
    6.9791   -1.1610   19.3318 H   0  0  0  0  0
  1  2  2  0  0  0
  1  3  1  0  0  0
  1  4  1  0  0  0
  3  5  1  0  0  0
  3  6  1  0  0  0
  3  7  1  0  0  0
  4  8  1  0  0  0
  4  9  1  0  0  0
  4 10  1  0  0  0
M  END
$$$$
