@<TRIPOS>MOLECULE
DMS_1_A_403
 10 9 0 0 0
SMALL
NO_CHARGES

@<TRIPOS>ATOM
      1 S           2.4480  -18.7150    8.0690 S.o    403  DMS403      0.0000
      2 O           3.6250  -18.9570    9.0350 O.2    403  DMS403      0.0000
      3 C1          1.0710  -18.3440    9.1520 C.3    403  DMS403      0.0000
      4 C2          1.9180  -20.3130    7.6130 C.3    403  DMS403      0.0000
      5 H           0.1275  -18.3278    8.5691 H      403  DMS403      0.0000
      6 H           1.2259  -17.3453    9.6094 H      403  DMS403      0.0000
      7 H           0.9958  -19.1021    9.9586 H      403  DMS403      0.0000
      8 H           0.9556  -20.2520    7.0650 H      403  DMS403      0.0000
      9 H           1.7906  -20.9556    8.5085 H      403  DMS403      0.0000
     10 H           2.6749  -20.7757    6.9471 H      403  DMS403      0.0000
@<TRIPOS>BOND
     1     1     2    2
     2     1     3    1
     3     1     4    1
     4     3     5    1
     5     3     6    1
     6     3     7    1
     7     4     8    1
     8     4     9    1
     9     4    10    1

