@<TRIPOS>MOLECULE
WR1_1_B_602
 55 56 0 0 0
SMALL
NO_CHARGES

@<TRIPOS>ATOM
      1 O4         11.8500   55.6040   37.6710 O.2    602  WR1602      0.0000
      2 C15        11.8950   56.4270   36.7570 C.2    602  WR1602      0.0000
      3 O5         11.8700   56.0030   35.3670 O.3    602  WR1602      0.0000
      4 C16        11.6860   54.6390   35.0260 C.3    602  WR1602      0.0000
      5 C17        10.2190   54.3280   34.8480 C.ar   602  WR1602      0.0000
      6 C18         9.8740   53.2670   34.0180 C.ar   602  WR1602      0.0000
      7 C19         8.5310   52.9480   33.8270 C.ar   602  WR1602      0.0000
      8 C20         7.5360   53.6840   34.4670 C.ar   602  WR1602      0.0000
      9 C21         7.8780   54.7460   35.2950 C.ar   602  WR1602      0.0000
     10 C22         9.2210   55.0720   35.4900 C.ar   602  WR1602      0.0000
     11 N2         11.9750   57.7440   36.9150 N.am   602  WR1602      0.0000
     12 C7         12.1320   58.4010   38.1940 C.3    602  WR1602      0.0000
     13 C8         13.1790   59.4820   37.9610 C.3    602  WR1602      0.0000
     14 C9         14.5090   58.8320   37.6240 C.ar   602  WR1602      0.0000
     15 C10        14.9340   58.7020   36.3000 C.ar   602  WR1602      0.0000
     16 C11        16.1620   58.1130   36.0080 C.ar   602  WR1602      0.0000
     17 C12        16.9620   57.6340   37.0420 C.ar   602  WR1602      0.0000
     18 C13        16.5380   57.7600   38.3630 C.ar   602  WR1602      0.0000
     19 C14        15.3180   58.3630   38.6520 C.ar   602  WR1602      0.0000
     20 C6         10.8260   58.9560   38.7030 C.2    602  WR1602      0.0000
     21 O3          9.8430   58.8700   37.9960 O.2    602  WR1602      0.0000
     22 N1         10.7730   59.4770   39.9470 N.am   602  WR1602      0.0000
     23 C4          9.5240   59.8910   40.5860 C.3    602  WR1602      0.0000
     24 C5          9.7150   61.2040   41.3560 C.3    602  WR1602      0.0000
     25 C3          8.9830   58.8110   41.5040 C.2    602  WR1602      0.0000
     26 O2          8.0960   59.0650   42.3050 O.2    602  WR1602      0.0000
     27 C2          9.5440   57.4040   41.4330 C.3    602  WR1602      0.0000
     28 C1          8.5180   56.3280   41.8130 C.3    602  WR1602      0.0000
     29 O1          7.9120   55.7320   40.6770 O.3    602  WR1602      0.0000
     30 H          12.1203   53.9617   35.7896 H      602  WR1602      0.0000
     31 H          12.2285   54.4329   34.0800 H      602  WR1602      0.0000
     32 H          10.6509   52.6721   33.5078 H      602  WR1602      0.0000
     33 H           8.2538   52.1074   33.1679 H      602  WR1602      0.0000
     34 H           6.4743   53.4245   34.3149 H      602  WR1602      0.0000
     35 H           7.0911   55.3312   35.8008 H      602  WR1602      0.0000
     36 H           9.4703   55.9151   36.1532 H      602  WR1602      0.0000
     37 H          11.9055   58.3185   36.0651 H      602  WR1602      0.0000
     38 H          12.5137   57.6870   38.9625 H      602  WR1602      0.0000
     39 H          13.3016   60.1064   38.8748 H      602  WR1602      0.0000
     40 H          12.8614   60.1798   37.1535 H      602  WR1602      0.0000
     41 H          14.3039   59.0701   35.4727 H      602  WR1602      0.0000
     42 H          16.4968   58.0202   34.9608 H      602  WR1602      0.0000
     43 H          17.9310   57.1574   36.8155 H      602  WR1602      0.0000
     44 H          17.1735   57.3816   39.1820 H      602  WR1602      0.0000
     45 H          15.0007   58.4600   39.7044 H      602  WR1602      0.0000
     46 H          11.6444   59.5610   40.4884 H      602  WR1602      0.0000
     47 H           8.7396   60.0760   39.8129 H      602  WR1602      0.0000
     48 H           8.7595   61.5768   41.7884 H      602  WR1602      0.0000
     49 H          10.1051   62.0076   40.6914 H      602  WR1602      0.0000
     50 H          10.4382   61.0877   42.1943 H      602  WR1602      0.0000
     51 H          10.4120   57.3476   42.1286 H      602  WR1602      0.0000
     52 H           9.9385   57.1734   40.4208 H      602  WR1602      0.0000
     53 H           7.7346   56.7251   42.4915 H      602  WR1602      0.0000
     54 H           9.0382   55.5269   42.3839 H      602  WR1602      0.0000
     55 H           7.2608   55.1094   40.9718 H      602  WR1602      0.0000
@<TRIPOS>BOND
     1     1     2    2
     2     2     3    1
     3     2    11    1
     4     3     4    1
     5     4     5    1
     6     4    30    1
     7     4    31    1
     8     5     6   ar
     9     5    10   ar
    10     6     7   ar
    11     6    32    1
    12     7     8   ar
    13     7    33    1
    14     8     9   ar
    15     8    34    1
    16     9    10   ar
    17     9    35    1
    18    10    36    1
    19    11    12    1
    20    11    37    1
    21    12    13    1
    22    12    20    1
    23    12    38    1
    24    13    14    1
    25    13    39    1
    26    13    40    1
    27    14    15   ar
    28    14    19   ar
    29    15    16   ar
    30    15    41    1
    31    16    17   ar
    32    16    42    1
    33    17    18   ar
    34    17    43    1
    35    18    19   ar
    36    18    44    1
    37    19    45    1
    38    20    21    2
    39    20    22    1
    40    22    23    1
    41    22    46    1
    42    23    24    1
    43    23    25    1
    44    23    47    1
    45    24    48    1
    46    24    49    1
    47    24    50    1
    48    25    26    2
    49    25    27    1
    50    27    28    1
    51    27    51    1
    52    27    52    1
    53    28    29    1
    54    28    53    1
    55    28    54    1
    56    29    55    1

