DMS_1_A_405
  -ISIS-            3D

 10  9  0  0  0  0  0  0  0  0  1 V2000
    2.4410  -45.6780    8.2930 S   0  0  0  0  0
    2.3410  -46.9830    7.5220 O   0  0  0  0  0
    2.4290  -46.1690   10.0060 C   0  0  0  0  0
    0.7940  -45.0020    8.2460 C   0  0  0  0  0
    2.3221  -45.2742   10.6527 H   0  0  0  0  0
    3.3867  -46.6733   10.2485 H   0  0  0  0  0
    1.5918  -46.8697   10.2028 H   0  0  0  0  0
    0.7244  -44.1336    8.9325 H   0  0  0  0  0
    0.0509  -45.7697    8.5443 H   0  0  0  0  0
    0.5676  -44.6618    7.2148 H   0  0  0  0  0
  1  2  2  0  0  0
  1  3  1  0  0  0
  1  4  1  0  0  0
  3  5  1  0  0  0
  3  6  1  0  0  0
  3  7  1  0  0  0
  4  8  1  0  0  0
  4  9  1  0  0  0
  4 10  1  0  0  0
M  END
$$$$
