@<TRIPOS>MOLECULE
DMS_2_A_404
 10 9 0 0 0
SMALL
NO_CHARGES

@<TRIPOS>ATOM
      1 S          -6.7230  -28.5870    6.5830 S.o    404  DMS404      0.0000
      2 O          -5.8580  -27.6450    7.3920 O.2    404  DMS404      0.0000
      3 C1         -5.6270  -29.6280    5.6620 C.3    404  DMS404      0.0000
      4 C2         -7.3810  -27.6120    5.2750 C.3    404  DMS404      0.0000
      5 H          -6.2079  -30.2454    4.9465 H      404  DMS404      0.0000
      6 H          -5.0861  -30.3002    6.3592 H      404  DMS404      0.0000
      7 H          -4.8895  -29.0144    5.1056 H      404  DMS404      0.0000
      8 H          -7.9292  -28.2606    4.5612 H      404  DMS404      0.0000
      9 H          -6.5667  -27.0826    4.7396 H      404  DMS404      0.0000
     10 H          -8.0857  -26.8635    5.6914 H      404  DMS404      0.0000
@<TRIPOS>BOND
     1     1     2    2
     2     1     3    1
     3     1     4    1
     4     3     5    1
     5     3     6    1
     6     3     7    1
     7     4     8    1
     8     4     9    1
     9     4    10    1

