@<TRIPOS>MOLECULE
DMS_2_A_402
 10 9 0 0 0
SMALL
NO_CHARGES

@<TRIPOS>ATOM
      1 S          -7.0600  -55.0850  -21.7920 S.o    402  DMS402      0.0000
      2 O          -7.8080  -54.2310  -22.7330 O.2    402  DMS402      0.0000
      3 C1         -5.9670  -54.0350  -20.9220 C.3    402  DMS402      0.0000
      4 C2         -5.8520  -55.8720  -22.8500 C.3    402  DMS402      0.0000
      5 H          -5.2470  -54.6412  -20.3352 H      402  DMS402      0.0000
      6 H          -6.5464  -53.3974  -20.2234 H      402  DMS402      0.0000
      7 H          -5.4098  -53.3817  -21.6247 H      402  DMS402      0.0000
      8 H          -5.1221  -56.4340  -22.2322 H      402  DMS402      0.0000
      9 H          -5.3154  -55.1141  -23.4574 H      402  DMS402      0.0000
     10 H          -6.3668  -56.5819  -23.5293 H      402  DMS402      0.0000
@<TRIPOS>BOND
     1     1     2    2
     2     1     3    1
     3     1     4    1
     4     3     5    1
     5     3     6    1
     6     3     7    1
     7     4     8    1
     8     4     9    1
     9     4    10    1

