@<TRIPOS>MOLECULE
DMS_1_A_403
 10 9 0 0 0
SMALL
NO_CHARGES

@<TRIPOS>ATOM
      1 S           7.8740  -48.7780   29.6970 S.o    403  DMS403      0.0000
      2 O           7.4550  -47.5440   28.9830 O.2    403  DMS403      0.0000
      3 C1          7.2500  -50.0950   28.7090 C.3    403  DMS403      0.0000
      4 C2          6.7300  -48.9750   31.0400 C.3    403  DMS403      0.0000
      5 H           7.3732  -51.0597   29.2423 H      403  DMS403      0.0000
      6 H           7.8181  -50.1413   27.7574 H      403  DMS403      0.0000
      7 H           6.1768  -49.9366   28.4777 H      403  DMS403      0.0000
      8 H           6.8738  -49.9664   31.5163 H      403  DMS403      0.0000
      9 H           5.6852  -48.8864   30.6782 H      403  DMS403      0.0000
     10 H           6.9157  -48.1859   31.7972 H      403  DMS403      0.0000
@<TRIPOS>BOND
     1     1     2    2
     2     1     3    1
     3     1     4    1
     4     3     5    1
     5     3     6    1
     6     3     7    1
     7     4     8    1
     8     4     9    1
     9     4    10    1

