EDO_1_A_407
  -ISIS-            3D

 10  9  0  0  0  0  0  0  0  0  1 V2000
   24.6970   -9.6530  -38.7220 C   0  0  0  0  0
   25.3810   -9.6790  -37.4650 O   0  0  0  0  0
   24.0920   -8.2660  -38.8670 C   0  0  0  0  0
   24.8650   -7.3600  -38.0630 O   0  0  0  0  0
   23.9182  -10.4425  -38.7600 H   0  0  0  0  0
   25.4241   -9.8447  -39.5395 H   0  0  0  0  0
   25.8422  -10.5044  -37.3963 H   0  0  0  0  0
   23.0401   -8.2562  -38.5114 H   0  0  0  0  0
   24.0927   -7.9283  -39.9231 H   0  0  0  0  0
   24.9466   -7.7331  -37.1944 H   0  0  0  0  0
  1  2  1  0  0  0
  1  3  1  0  0  0
  1  5  1  0  0  0
  1  6  1  0  0  0
  2  7  1  0  0  0
  3  4  1  0  0  0
  3  8  1  0  0  0
  3  9  1  0  0  0
  4 10  1  0  0  0
M  END
$$$$
