@<TRIPOS>MOLECULE
EDO_1_A_404
 10 9 0 0 0
SMALL
NO_CHARGES

@<TRIPOS>ATOM
      1 C1         20.8790   -8.2670   -9.1790 C.3    404  EDO404      0.0000
      2 O1         20.0180   -8.9080   -8.2290 O.3    404  EDO404      0.0000
      3 C2         21.7670   -9.3220   -9.8260 C.3    404  EDO404      0.0000
      4 O2         22.3020  -10.1710   -8.8040 O.3    404  EDO404      0.0000
      5 H          21.4946   -7.5052   -8.6559 H      404  EDO404      0.0000
      6 H          20.2674   -7.7378   -9.9379 H      404  EDO404      0.0000
      7 H          20.5597   -9.5226   -7.7466 H      404  EDO404      0.0000
      8 H          22.5914   -8.8435  -10.3952 H      404  EDO404      0.0000
      9 H          21.1757   -9.9343  -10.5398 H      404  EDO404      0.0000
     10 H          22.8450  -10.8274   -9.2196 H      404  EDO404      0.0000
@<TRIPOS>BOND
     1     1     2    1
     2     1     3    1
     3     1     5    1
     4     1     6    1
     5     2     7    1
     6     3     4    1
     7     3     8    1
     8     3     9    1
     9     4    10    1

