@<TRIPOS>MOLECULE
EDO_1_A_407
 10 9 0 0 0
SMALL
NO_CHARGES

@<TRIPOS>ATOM
      1 C1         24.6970   -9.6530  -38.7220 C.3    407  EDO407      0.0000
      2 O1         25.3810   -9.6790  -37.4650 O.3    407  EDO407      0.0000
      3 C2         24.0920   -8.2660  -38.8670 C.3    407  EDO407      0.0000
      4 O2         24.8650   -7.3600  -38.0630 O.3    407  EDO407      0.0000
      5 H          23.9182  -10.4425  -38.7600 H      407  EDO407      0.0000
      6 H          25.4241   -9.8447  -39.5395 H      407  EDO407      0.0000
      7 H          25.8422  -10.5044  -37.3963 H      407  EDO407      0.0000
      8 H          23.0401   -8.2562  -38.5114 H      407  EDO407      0.0000
      9 H          24.0927   -7.9283  -39.9231 H      407  EDO407      0.0000
     10 H          24.9466   -7.7331  -37.1944 H      407  EDO407      0.0000
@<TRIPOS>BOND
     1     1     2    1
     2     1     3    1
     3     1     5    1
     4     1     6    1
     5     2     7    1
     6     3     4    1
     7     3     8    1
     8     3     9    1
     9     4    10    1

