EDO_1_A_405
  -ISIS-            3D

 10  9  0  0  0  0  0  0  0  0  1 V2000
   24.3780   -2.9270  -10.7130 C   0  0  0  0  0
   25.1150   -1.9800   -9.9400 O   0  0  0  0  0
   23.0780   -3.3010   -9.9930 C   0  0  0  0  0
   22.6030   -4.5500  -10.4790 O   0  0  0  0  0
   25.0114   -3.8297  -10.8398 H   0  0  0  0  0
   24.1737   -2.5282  -11.7287 H   0  0  0  0  0
   24.7826   -1.1129  -10.1312 H   0  0  0  0  0
   22.3083   -2.5152  -10.1430 H   0  0  0  0  0
   23.2614   -3.3871   -8.9006 H   0  0  0  0  0
   21.8335   -4.7926   -9.9807 H   0  0  0  0  0
  1  2  1  0  0  0
  1  3  1  0  0  0
  1  5  1  0  0  0
  1  6  1  0  0  0
  2  7  1  0  0  0
  3  4  1  0  0  0
  3  8  1  0  0  0
  3  9  1  0  0  0
  4 10  1  0  0  0
M  END
$$$$
