EDO_1_B_1001
  -ISIS-            3D

 10  9  0  0  0  0  0  0  0  0  1 V2000
    1.3160   -2.5700  -17.6820 C   0  0  0  0  0
    1.8760   -1.8090  -18.7510 O   0  0  0  0  0
    1.5200   -1.8100  -16.3730 C   0  0  0  0  0
    0.3010   -1.1560  -16.0250 O   0  0  0  0  0
    1.8359   -3.5505  -17.6315 H   0  0  0  0  0
    0.2428   -2.7769  -17.8749 H   0  0  0  0  0
    1.7597   -2.2965  -19.5556 H   0  0  0  0  0
    2.3533   -1.0799  -16.4355 H   0  0  0  0  0
    1.7730   -2.5206  -15.5588 H   0  0  0  0  0
    0.1842   -0.4326  -16.6275 H   0  0  0  0  0
  1  2  1  0  0  0
  1  3  1  0  0  0
  1  5  1  0  0  0
  1  6  1  0  0  0
  2  7  1  0  0  0
  3  4  1  0  0  0
  3  8  1  0  0  0
  3  9  1  0  0  0
  4 10  1  0  0  0
M  END
$$$$
