EDO_1_B_1004
  -ISIS-            3D

 10  9  0  0  0  0  0  0  0  0  1 V2000
   17.0810   -0.3190   -3.8640 C   0  0  0  0  0
   17.9920    0.2220   -4.8340 O   0  0  0  0  0
   16.6850   -1.7490   -4.2270 C   0  0  0  0  0
   17.7110   -2.6700   -3.8380 O   0  0  0  0  0
   16.1781    0.3266   -3.8449 H   0  0  0  0  0
   17.5315   -0.2722   -2.8506 H   0  0  0  0  0
   18.7614   -0.3335   -4.8264 H   0  0  0  0  0
   16.4860   -1.8374   -5.3157 H   0  0  0  0  0
   15.7456   -2.0189   -3.6986 H   0  0  0  0  0
   17.4289   -3.5445   -4.0711 H   0  0  0  0  0
  1  2  1  0  0  0
  1  3  1  0  0  0
  1  5  1  0  0  0
  1  6  1  0  0  0
  2  7  1  0  0  0
  3  4  1  0  0  0
  3  8  1  0  0  0
  3  9  1  0  0  0
  4 10  1  0  0  0
M  END
$$$$
