@<TRIPOS>MOLECULE
Q3C_1_A_201
 19 20 0 0 0
SMALL
NO_CHARGES

@<TRIPOS>ATOM
      1 O13       -46.4610  -29.2820    1.9930 O.co2  201  Q3C201     -0.5000
      2 C11       -46.5300  -29.2580    3.2370 C.2    201  Q3C201      0.0000
      3 O12       -45.4580  -29.4490    3.8830 O.co2  201  Q3C201     -0.5000
      4 C7        -47.8890  -29.2320    3.9480 C.ar   201  Q3C201      0.0000
      5 C3        -47.9100  -29.1270    5.3120 C.ar   201  Q3C201      0.0000
      6 C9        -49.1170  -29.3980    3.2690 C.ar   201  Q3C201      0.0000
      7 N5        -50.2740  -29.4730    3.9220 N.ar   201  Q3C201      0.0000
      8 C2        -50.3150  -29.3590    5.2620 C.ar   201  Q3C201      0.0000
      9 C6        -51.5430  -29.4480    5.9260 C.ar   201  Q3C201      0.0000
     10 C10       -51.5900  -29.3600    7.3090 C.ar   201  Q3C201      0.0000
     11 C8        -50.4280  -29.1560    8.0300 C.ar   201  Q3C201      0.0000
     12 C4        -49.2010  -29.0940    7.3960 C.ar   201  Q3C201      0.0000
     13 C1        -49.1520  -29.1780    5.9730 C.ar   201  Q3C201      0.0000
     14 H         -46.9790  -29.0114    5.8905 H      201  Q3C201      0.0000
     15 H         -49.1379  -29.4969    2.1713 H      201  Q3C201      0.0000
     16 H         -52.4704  -29.5958    5.3481 H      201  Q3C201      0.0000
     17 H         -52.5578  -29.4393    7.8326 H      201  Q3C201      0.0000
     18 H         -50.4785  -29.0628    9.1284 H      201  Q3C201      0.0000
     19 H         -48.2783  -28.9685    7.9869 H      201  Q3C201      0.0000
@<TRIPOS>BOND
     1     1     2   ar
     2     2     3   ar
     3     2     4    1
     4     4     5   ar
     5     4     6   ar
     6     5    13   ar
     7     5    14    1
     8     6     7   ar
     9     6    15    1
    10     7     8   ar
    11     8     9   ar
    12     8    13   ar
    13     9    10   ar
    14     9    16    1
    15    10    11   ar
    16    10    17    1
    17    11    12   ar
    18    11    18    1
    19    12    13   ar
    20    12    19    1

