@<TRIPOS>MOLECULE
DMS_2_A_402
 10 9 0 0 0
SMALL
NO_CHARGES

@<TRIPOS>ATOM
      1 S          -6.1430   -1.0410    6.2890 S.o    402  DMS402      0.0000
      2 O          -7.1030   -0.7240    7.3730 O.2    402  DMS402      0.0000
      3 C1         -7.0240   -0.9100    4.7390 C.3    402  DMS402      0.0000
      4 C2         -5.8680   -2.7820    6.3000 C.3    402  DMS402      0.0000
      5 H          -6.3703   -1.2427    3.9068 H      402  DMS402      0.0000
      6 H          -7.3119    0.1477    4.5698 H      402  DMS402      0.0000
      7 H          -7.9394   -1.5357    4.7641 H      402  DMS402      0.0000
      8 H          -5.2409   -3.0700    5.4314 H      402  DMS402      0.0000
      9 H          -6.8337   -3.3255    6.2538 H      402  DMS402      0.0000
     10 H          -5.3388   -3.0652    7.2328 H      402  DMS402      0.0000
@<TRIPOS>BOND
     1     1     2    2
     2     1     3    1
     3     1     4    1
     4     3     5    1
     5     3     6    1
     6     3     7    1
     7     4     8    1
     8     4     9    1
     9     4    10    1

