DMS_2_A_401
  -ISIS-            3D

 10  9  0  0  0  0  0  0  0  0  1 V2000
   -7.0070  -28.0560  -21.5320 S   0  0  0  0  0
   -7.6820  -26.9940  -22.2940 O   0  0  0  0  0
   -5.6720  -28.6430  -22.5690 C   0  0  0  0  0
   -6.0340  -27.2360  -20.3170 C   0  0  0  0  0
   -5.0336  -29.3462  -21.9961 H   0  0  0  0  0
   -5.0574  -27.7909  -22.9252 H   0  0  0  0  0
   -6.0963  -29.1751  -23.4449 H   0  0  0  0  0
   -5.3853  -27.9691  -19.7955 H   0  0  0  0  0
   -6.7019  -26.7578  -19.5716 H   0  0  0  0  0
   -5.4019  -26.4551  -20.7874 H   0  0  0  0  0
  1  2  2  0  0  0
  1  3  1  0  0  0
  1  4  1  0  0  0
  3  5  1  0  0  0
  3  6  1  0  0  0
  3  7  1  0  0  0
  4  8  1  0  0  0
  4  9  1  0  0  0
  4 10  1  0  0  0
M  END
$$$$
