@<TRIPOS>MOLECULE
DMS_2_A_404
 10 9 0 0 0
SMALL
NO_CHARGES

@<TRIPOS>ATOM
      1 S          -5.9370    0.4200  -18.2590 S.o    404  DMS404      0.0000
      2 O          -7.0950    0.9960  -17.5200 O.2    404  DMS404      0.0000
      3 C1         -4.9960    1.7410  -19.0780 C.3    404  DMS404      0.0000
      4 C2         -6.5400   -0.4510  -19.7330 C.3    404  DMS404      0.0000
      5 H          -4.1809    1.2957  -19.6843 H      404  DMS404      0.0000
      6 H          -4.5559    2.4067  -18.3076 H      404  DMS404      0.0000
      7 H          -5.6683    2.3322  -19.7329 H      404  DMS404      0.0000
      8 H          -5.6781   -0.8264  -20.3216 H      404  DMS404      0.0000
      9 H          -7.1460    0.2378  -20.3566 H      404  DMS404      0.0000
     10 H          -7.1681   -1.3094  -19.4184 H      404  DMS404      0.0000
@<TRIPOS>BOND
     1     1     2    2
     2     1     3    1
     3     1     4    1
     4     3     5    1
     5     3     6    1
     6     3     7    1
     7     4     8    1
     8     4     9    1
     9     4    10    1

