@<TRIPOS>MOLECULE
DMS_2_A_405
 10 9 0 0 0
SMALL
NO_CHARGES

@<TRIPOS>ATOM
      1 S         -20.5610  -15.8400   -4.8500 S.o    405  DMS405      0.0000
      2 O         -20.6620  -16.8650   -3.7630 O.2    405  DMS405      0.0000
      3 C1        -20.3390  -16.6660   -6.4500 C.3    405  DMS405      0.0000
      4 C2        -22.1810  -15.0680   -5.1050 C.3    405  DMS405      0.0000
      5 H         -20.3288  -15.9086   -7.2602 H      405  DMS405      0.0000
      6 H         -21.1675  -17.3835   -6.6209 H      405  DMS405      0.0000
      7 H         -19.3738  -17.2125   -6.4483 H      405  DMS405      0.0000
      8 H         -22.1225  -14.3534   -5.9513 H      405  DMS405      0.0000
      9 H         -22.4746  -14.5218   -4.1853 H      405  DMS405      0.0000
     10 H         -22.9384  -15.8474   -5.3272 H      405  DMS405      0.0000
@<TRIPOS>BOND
     1     1     2    2
     2     1     3    1
     3     1     4    1
     4     3     5    1
     5     3     6    1
     6     3     7    1
     7     4     8    1
     8     4     9    1
     9     4    10    1

