DMS_2_A_403
  -ISIS-            3D

 10  9  0  0  0  0  0  0  0  0  1 V2000
   -6.2000   -1.0610    6.2870 S   0  0  0  0  0
   -7.0060   -0.6600    7.4740 O   0  0  0  0  0
   -7.2210   -0.9290    4.7890 C   0  0  0  0  0
   -5.8860   -2.8430    6.3050 C   0  0  0  0  0
   -6.6378   -1.2741    3.9112 H   0  0  0  0  0
   -7.5139    0.1302    4.6394 H   0  0  0  0  0
   -8.1330   -1.5508    4.8993 H   0  0  0  0  0
   -5.3374   -3.1329    5.3858 H   0  0  0  0  0
   -6.8474   -3.3947    6.3553 H   0  0  0  0  0
   -5.2705   -3.0965    7.1924 H   0  0  0  0  0
  1  2  2  0  0  0
  1  3  1  0  0  0
  1  4  1  0  0  0
  3  5  1  0  0  0
  3  6  1  0  0  0
  3  7  1  0  0  0
  4  8  1  0  0  0
  4  9  1  0  0  0
  4 10  1  0  0  0
M  END
$$$$
