DMS_2_A_406
  -ISIS-            3D

 10  9  0  0  0  0  0  0  0  0  1 V2000
   -2.3550  -18.8970   -8.0930 S   0  0  0  0  0
   -2.1850  -20.3620   -7.8430 O   0  0  0  0  0
   -3.9280  -18.6150   -8.9550 C   0  0  0  0  0
   -1.1960  -18.3730   -9.3880 C   0  0  0  0  0
   -4.0247  -17.5395   -9.2083 H   0  0  0  0  0
   -4.7662  -18.9108   -8.2915 H   0  0  0  0  0
   -3.9626  -19.2213   -9.8833 H   0  0  0  0  0
   -1.3679  -17.3042   -9.6296 H   0  0  0  0  0
   -1.3445  -18.9895  -10.2982 H   0  0  0  0  0
   -0.1568  -18.5022   -9.0222 H   0  0  0  0  0
  1  2  2  0  0  0
  1  3  1  0  0  0
  1  4  1  0  0  0
  3  5  1  0  0  0
  3  6  1  0  0  0
  3  7  1  0  0  0
  4  8  1  0  0  0
  4  9  1  0  0  0
  4 10  1  0  0  0
M  END
$$$$
