@<TRIPOS>MOLECULE
DMS_1_A_407
 10 9 0 0 0
SMALL
NO_CHARGES

@<TRIPOS>ATOM
      1 S           7.0930  -21.1110   28.8350 S.o    407  DMS407      0.0000
      2 O           8.2380  -20.7990   29.7500 O.2    407  DMS407      0.0000
      3 C1          6.9340  -22.9060   28.6480 C.3    407  DMS407      0.0000
      4 C2          5.5170  -20.7360   29.6570 C.3    407  DMS407      0.0000
      5 H           6.0522  -23.1369   28.0161 H      407  DMS407      0.0000
      6 H           6.8131  -23.3790   29.6437 H      407  DMS407      0.0000
      7 H           7.8471  -23.3048   28.1603 H      407  DMS407      0.0000
      8 H           4.6752  -21.0265   28.9956 H      407  DMS407      0.0000
      9 H           5.4623  -19.6469   29.8615 H      407  DMS407      0.0000
     10 H           5.4497  -21.2935   30.6133 H      407  DMS407      0.0000
@<TRIPOS>BOND
     1     1     2    2
     2     1     3    1
     3     1     4    1
     4     3     5    1
     5     3     6    1
     6     3     7    1
     7     4     8    1
     8     4     9    1
     9     4    10    1

