DMS_2_A_405
  -ISIS-            3D

 10  9  0  0  0  0  0  0  0  0  1 V2000
  -20.5610  -15.8400   -4.8500 S   0  0  0  0  0
  -20.6620  -16.8650   -3.7630 O   0  0  0  0  0
  -20.3390  -16.6660   -6.4500 C   0  0  0  0  0
  -22.1810  -15.0680   -5.1050 C   0  0  0  0  0
  -20.3288  -15.9086   -7.2602 H   0  0  0  0  0
  -21.1675  -17.3835   -6.6209 H   0  0  0  0  0
  -19.3738  -17.2125   -6.4483 H   0  0  0  0  0
  -22.1225  -14.3534   -5.9513 H   0  0  0  0  0
  -22.4746  -14.5218   -4.1853 H   0  0  0  0  0
  -22.9384  -15.8474   -5.3272 H   0  0  0  0  0
  1  2  2  0  0  0
  1  3  1  0  0  0
  1  4  1  0  0  0
  3  5  1  0  0  0
  3  6  1  0  0  0
  3  7  1  0  0  0
  4  8  1  0  0  0
  4  9  1  0  0  0
  4 10  1  0  0  0
M  END
$$$$
