3R6_1_A_201
  -ISIS-            3D

 19 19  0  0  0  0  0  0  0  0  1 V2000
  -49.1570  -29.0290    6.7690 C   0  0  0  0  0
  -47.3620  -29.0360    6.5510 S   0  0  0  0  0
  -47.0630  -29.1190    4.7920 C   0  0  0  0  0
  -47.9930  -28.9690    3.8460 C   0  0  0  0  0
  -47.6030  -29.1110    2.5070 C   0  0  0  0  0
  -46.2620  -29.4300    2.2530 C   0  0  0  0  0
  -45.7610  -29.6030    0.9810 O   0  0  0  0  0
  -45.3820  -29.5640    3.2690 C   0  0  0  0  0
  -45.7920  -29.4670    4.4970 C   0  0  0  0  0
  -43.9440  -29.9210    2.9730 C   0  0  0  0  0
  -43.1170  -30.1040    3.8530 O   0  0  0  0  0
  -43.5960  -29.9460    1.8500 O   0  0  0  0  0
  -49.3911  -29.0424    7.8554 H   0  0  0  0  0
  -49.5987  -29.9305    6.2917 H   0  0  0  0  0
  -49.5895  -28.1096    6.3186 H   0  0  0  0  0
  -49.0429  -28.7349    4.0816 H   0  0  0  0  0
  -48.3220  -28.9852    1.6817 H   0  0  0  0  0
  -45.2579  -30.3935    0.8307 H   0  0  0  0  0
  -45.0792  -29.6478    5.3206 H   0  0  0  0  0
  1  2  1  0  0  0
  1 13  1  0  0  0
  1 14  1  0  0  0
  1 15  1  0  0  0
  2  3  1  0  0  0
  3  4  2  0  0  0
  3  9  1  0  0  0
  4  5  1  0  0  0
  4 16  1  0  0  0
  5  6  2  0  0  0
  5 17  1  0  0  0
  6  7  1  0  0  0
  6  8  1  0  0  0
  7 18  1  0  0  0
  8  9  2  0  0  0
  8 10  1  0  0  0
  9 19  1  0  0  0
 10 11  2  0  0  0
 10 12  2  0  0  0
M  END
$$$$
