@<TRIPOS>MOLECULE
DMS_2_A_1004
 10 9 0 0 0
SMALL
NO_CHARGES

@<TRIPOS>ATOM
      1 S          -2.4460  -18.9170   -8.2920 S.o   1004  DMS1004      0.0000
      2 O          -3.7390  -18.9320   -9.0580 O.2   1004  DMS1004      0.0000
      3 C1         -1.2960  -18.0030   -9.2880 C.3   1004  DMS1004      0.0000
      4 C2         -1.7270  -20.5250   -8.5060 C.3   1004  DMS1004      0.0000
      5 H          -0.2793  -18.0740   -8.8502 H     1004  DMS1004      0.0000
      6 H          -1.6005  -16.9366   -9.3141 H     1004  DMS1004      0.0000
      7 H          -1.2807  -18.3995  -10.3240 H     1004  DMS1004      0.0000
      8 H          -0.7004  -20.5374   -8.0860 H     1004  DMS1004      0.0000
      9 H          -1.6892  -20.7920   -9.5821 H     1004  DMS1004      0.0000
     10 H          -2.3422  -21.2759   -7.9692 H     1004  DMS1004      0.0000
@<TRIPOS>BOND
     1     1     2    2
     2     1     3    1
     3     1     4    1
     4     3     5    1
     5     3     6    1
     6     3     7    1
     7     4     8    1
     8     4     9    1
     9     4    10    1

