@<TRIPOS>MOLECULE
DMS_1_A_1005
 10 9 0 0 0
SMALL
NO_CHARGES

@<TRIPOS>ATOM
      1 S           6.0330    0.4980   17.9470 S.o   1005  DMS1005      0.0000
      2 O           5.3720    1.6830   18.6170 O.2   1005  DMS1005      0.0000
      3 C1          7.5640    1.0790   17.3110 C.3   1005  DMS1005      0.0000
      4 C2          6.7130   -0.4950   19.2490 C.3   1005  DMS1005      0.0000
      5 H           8.1661    0.2272   16.9339 H     1005  DMS1005      0.0000
      6 H           8.1350    1.6153   18.0964 H     1005  DMS1005      0.0000
      7 H           7.3708    1.7763   16.4702 H     1005  DMS1005      0.0000
      8 H           7.3371   -1.3055   18.8202 H     1005  DMS1005      0.0000
      9 H           5.8859   -0.9521   19.8299 H     1005  DMS1005      0.0000
     10 H           7.3298    0.1262   19.9304 H     1005  DMS1005      0.0000
@<TRIPOS>BOND
     1     1     2    2
     2     1     3    1
     3     1     4    1
     4     3     5    1
     5     3     6    1
     6     3     7    1
     7     4     8    1
     8     4     9    1
     9     4    10    1

