@<TRIPOS>MOLECULE
PEE_1_A_301
 50 49 0 0 0
SMALL
NO_CHARGES

@<TRIPOS>ATOM
      1 C2         99.1650  100.6100  111.1810 C.3    301  PEE301      0.0000
      2 C1        100.3370  101.5760  111.3120 C.3    301  PEE301      0.0000
      3 N         104.6350  105.5500  112.1690 N.3    301  PEE301      1.0000
      4 C3         97.8350  101.3570  111.3570 C.3    301  PEE301      0.0000
      5 C4        103.3000  103.6640  111.3460 C.3    301  PEE301      0.0000
      6 C5        103.8430  105.0500  110.9820 C.3    301  PEE301      0.0000
      7 C10        99.1360   98.6110  109.9440 C.2    301  PEE301      0.0000
      8 C11        98.4570   97.9290  108.7990 C.3    301  PEE301      0.0000
      9 C12        98.4290   96.4250  109.0740 C.3    301  PEE301      0.0000
     10 C13        97.5370   95.7130  108.0740 C.3    301  PEE301      0.0000
     11 C30        95.6580  100.9320  110.5780 C.2    301  PEE301      0.0000
     12 C31        94.7580  100.4990  109.4490 C.3    301  PEE301      0.0000
     13 C32        94.5450   98.9890  109.5340 C.3    301  PEE301      0.0000
     14 C33        93.7880   98.4740  108.3230 C.3    301  PEE301      0.0000
     15 O4         99.6370   98.0170  110.8740 O.2    301  PEE301      0.0000
     16 O5         95.2640  101.1740  111.7090 O.2    301  PEE301      0.0000
     17 O2         99.1680   99.9660  109.9190 O.3    301  PEE301      0.0000
     18 O3         96.9720  101.0530  110.2690 O.3    301  PEE301      0.0000
     19 O1P       102.2840  103.2340  113.7330 O.co2  301  PEE301      0.0000
     20 O2P       100.1520  104.6410  112.9600 O.co2  301  PEE301      0.0000
     21 O3P       100.3260  102.1090  112.5890 O.3    301  PEE301      0.0000
     22 O4P       101.9370  103.7400  111.3190 O.3    301  PEE301      0.0000
     23 P         101.1220  103.5220  112.8740 P.3    301  PEE301      0.0000
     24 H          99.2449   99.8720  112.0061 H      301  PEE301      0.0000
     25 H         100.2334  102.3599  110.5335 H      301  PEE301      0.0000
     26 H         101.2944  101.0420  111.1364 H      301  PEE301      0.0000
     27 H         104.0355  105.6512  112.9831 H      301  PEE301      0.0000
     28 H         105.0343  106.4601  111.9569 H      301  PEE301      0.0000
     29 H          98.0010  102.4529  111.3819 H      301  PEE301      0.0000
     30 H          97.4144  101.0827  112.3452 H      301  PEE301      0.0000
     31 H         103.7535  103.2422  112.2590 H      301  PEE301      0.0000
     32 H         103.6021  102.9561  110.5441 H      301  PEE301      0.0000
     33 H         104.5049  104.9925  110.0893 H      301  PEE301      0.0000
     34 H         103.0266  105.7656  110.7390 H      301  PEE301      0.0000
     35 H          99.0010   98.1407  107.8522 H      301  PEE301      0.0000
     36 H          97.4297   98.3310  108.6782 H      301  PEE301      0.0000
     37 H          98.0358   96.2254  110.0984 H      301  PEE301      0.0000
     38 H          99.4603   96.0040  109.0261 H      301  PEE301      0.0000
     39 H          97.5155   94.6155  108.2594 H      301  PEE301      0.0000
     40 H          97.8893   95.8615  107.0286 H      301  PEE301      0.0000
     41 H          96.4851   96.0736  108.1257 H      301  PEE301      0.0000
     42 H          95.2161  100.7701  108.4722 H      301  PEE301      0.0000
     43 H          93.7803  101.0255  109.5163 H      301  PEE301      0.0000
     44 H          93.9775   98.7412  110.4610 H      301  PEE301      0.0000
     45 H          95.5225   98.4641  109.6120 H      301  PEE301      0.0000
     46 H          93.6198   97.3754  108.3880 H      301  PEE301      0.0000
     47 H          94.3434   98.6637  107.3772 H      301  PEE301      0.0000
     48 H          92.7883   98.9537  108.2259 H      301  PEE301      0.0000
     49 H         102.4740  104.1026  114.4328 H      301  PEE301      0.0000
     50 H         105.3960  104.9164  112.3973 H      301  PEE301      0.0000
@<TRIPOS>BOND
     1     1     2    1
     2     1     4    1
     3     1    17    1
     4     1    24    1
     5     2    21    1
     6     2    25    1
     7     2    26    1
     8     3     6    1
     9     3    27    1
    10     3    28    1
    11     4    18    1
    12     4    29    1
    13     4    30    1
    14     5     6    1
    15     5    22    1
    16     5    31    1
    17     5    32    1
    18     6    33    1
    19     6    34    1
    20     7     8    1
    21     7    15    2
    22     7    17    1
    23     8     9    1
    24     8    35    1
    25     8    36    1
    26     9    10    1
    27     9    37    1
    28     9    38    1
    29    10    39    1
    30    10    40    1
    31    10    41    1
    32    11    12    1
    33    11    16    2
    34    11    18    1
    35    12    13    1
    36    12    42    1
    37    12    43    1
    38    13    14    1
    39    13    44    1
    40    13    45    1
    41    14    46    1
    42    14    47    1
    43    14    48    1
    44    19    23    1
    45    20    23    2
    46    21    23    1
    47    22    23    1
    48    19    49    1
    49     3    50    1

