PEE_1_A_301
  -ISIS-            3D

 50 49  0  0  0  0  0  0  0  0  1 V2000
   99.1650  100.6100  111.1810 C   0  0  0  0  0
  100.3370  101.5760  111.3120 C   0  0  0  0  0
  104.6350  105.5500  112.1690 N   0  3  0  0  0
   97.8350  101.3570  111.3570 C   0  0  0  0  0
  103.3000  103.6640  111.3460 C   0  0  0  0  0
  103.8430  105.0500  110.9820 C   0  0  0  0  0
   99.1360   98.6110  109.9440 C   0  0  0  0  0
   98.4570   97.9290  108.7990 C   0  0  0  0  0
   98.4290   96.4250  109.0740 C   0  0  0  0  0
   97.5370   95.7130  108.0740 C   0  0  0  0  0
   95.6580  100.9320  110.5780 C   0  0  0  0  0
   94.7580  100.4990  109.4490 C   0  0  0  0  0
   94.5450   98.9890  109.5340 C   0  0  0  0  0
   93.7880   98.4740  108.3230 C   0  0  0  0  0
   99.6370   98.0170  110.8740 O   0  0  0  0  0
   95.2640  101.1740  111.7090 O   0  0  0  0  0
   99.1680   99.9660  109.9190 O   0  0  0  0  0
   96.9720  101.0530  110.2690 O   0  0  0  0  0
  102.2840  103.2340  113.7330 O   0  0  0  0  0
  100.1520  104.6410  112.9600 O   0  0  0  0  0
  100.3260  102.1090  112.5890 O   0  0  0  0  0
  101.9370  103.7400  111.3190 O   0  0  0  0  0
  101.1220  103.5220  112.8740 P   0  0  0  0  0
   99.2449   99.8720  112.0061 H   0  0  0  0  0
  100.2334  102.3599  110.5335 H   0  0  0  0  0
  101.2944  101.0420  111.1364 H   0  0  0  0  0
  104.0355  105.6512  112.9831 H   0  0  0  0  0
  105.0343  106.4601  111.9569 H   0  0  0  0  0
   98.0010  102.4529  111.3819 H   0  0  0  0  0
   97.4144  101.0827  112.3452 H   0  0  0  0  0
  103.7535  103.2422  112.2590 H   0  0  0  0  0
  103.6021  102.9561  110.5441 H   0  0  0  0  0
  104.5049  104.9925  110.0893 H   0  0  0  0  0
  103.0266  105.7656  110.7390 H   0  0  0  0  0
   99.0010   98.1407  107.8522 H   0  0  0  0  0
   97.4297   98.3310  108.6782 H   0  0  0  0  0
   98.0358   96.2254  110.0984 H   0  0  0  0  0
   99.4603   96.0040  109.0261 H   0  0  0  0  0
   97.5155   94.6155  108.2594 H   0  0  0  0  0
   97.8893   95.8615  107.0286 H   0  0  0  0  0
   96.4851   96.0736  108.1257 H   0  0  0  0  0
   95.2161  100.7701  108.4722 H   0  0  0  0  0
   93.7803  101.0255  109.5163 H   0  0  0  0  0
   93.9775   98.7412  110.4610 H   0  0  0  0  0
   95.5225   98.4641  109.6120 H   0  0  0  0  0
   93.6198   97.3754  108.3880 H   0  0  0  0  0
   94.3434   98.6637  107.3772 H   0  0  0  0  0
   92.7883   98.9537  108.2259 H   0  0  0  0  0
  102.4740  104.1026  114.4328 H   0  0  0  0  0
  105.3960  104.9164  112.3973 H   0  0  0  0  0
  1  2  1  0  0  0
  1  4  1  0  0  0
  1 17  1  0  0  0
  1 24  1  0  0  0
  2 21  1  0  0  0
  2 25  1  0  0  0
  2 26  1  0  0  0
  3  6  1  0  0  0
  3 27  1  0  0  0
  3 28  1  0  0  0
  4 18  1  0  0  0
  4 29  1  0  0  0
  4 30  1  0  0  0
  5  6  1  0  0  0
  5 22  1  0  0  0
  5 31  1  0  0  0
  5 32  1  0  0  0
  6 33  1  0  0  0
  6 34  1  0  0  0
  7  8  1  0  0  0
  7 15  2  0  0  0
  7 17  1  0  0  0
  8  9  1  0  0  0
  8 35  1  0  0  0
  8 36  1  0  0  0
  9 10  1  0  0  0
  9 37  1  0  0  0
  9 38  1  0  0  0
 10 39  1  0  0  0
 10 40  1  0  0  0
 10 41  1  0  0  0
 11 12  1  0  0  0
 11 16  2  0  0  0
 11 18  1  0  0  0
 12 13  1  0  0  0
 12 42  1  0  0  0
 12 43  1  0  0  0
 13 14  1  0  0  0
 13 44  1  0  0  0
 13 45  1  0  0  0
 14 46  1  0  0  0
 14 47  1  0  0  0
 14 48  1  0  0  0
 19 23  1  0  0  0
 20 23  2  0  0  0
 21 23  1  0  0  0
 22 23  1  0  0  0
 19 49  1  0  0  0
  3 50  1  0  0  0
M  END
$$$$
