DMS_2_A_401
  -ISIS-            3D

 10  9  0  0  0  0  0  0  0  0  1 V2000
   -7.0240  -28.1730  -21.3670 S   0  0  0  0  0
   -7.7000  -27.1990  -22.2600 O   0  0  0  0  0
   -5.7790  -28.9020  -22.4090 C   0  0  0  0  0
   -5.9550  -27.2530  -20.3260 C   0  0  0  0  0
   -5.1119  -29.5478  -21.8022 H   0  0  0  0  0
   -5.1772  -28.1129  -22.9053 H   0  0  0  0  0
   -6.2689  -29.5246  -23.1856 H   0  0  0  0  0
   -5.2953  -27.9408  -19.7588 H   0  0  0  0  0
   -6.5593  -26.6651  -19.6053 H   0  0  0  0  0
   -5.3325  -26.5562  -20.9242 H   0  0  0  0  0
  1  2  2  0  0  0
  1  3  1  0  0  0
  1  4  1  0  0  0
  3  5  1  0  0  0
  3  6  1  0  0  0
  3  7  1  0  0  0
  4  8  1  0  0  0
  4  9  1  0  0  0
  4 10  1  0  0  0
M  END
$$$$
