@<TRIPOS>MOLECULE
DMS_2_A_403
 10 9 0 0 0
SMALL
NO_CHARGES

@<TRIPOS>ATOM
      1 S          -2.3850  -18.9520   -7.9940 S.o    403  DMS403      0.0000
      2 O          -3.6400  -18.7970   -8.8850 O.2    403  DMS403      0.0000
      3 C1         -1.0800  -18.0840   -8.8340 C.3    403  DMS403      0.0000
      4 C2         -1.7990  -20.5930   -8.3400 C.3    403  DMS403      0.0000
      5 H          -0.1084  -18.2973   -8.3432 H      403  DMS403      0.0000
      6 H          -1.2748  -16.9933   -8.7818 H      403  DMS403      0.0000
      7 H          -1.0327  -18.3905   -9.8991 H      403  DMS403      0.0000
      8 H          -0.8068  -20.7463   -7.8684 H      403  DMS403      0.0000
      9 H          -1.7175  -20.7541   -9.4346 H      403  DMS403      0.0000
     10 H          -2.5117  -21.3318   -7.9196 H      403  DMS403      0.0000
@<TRIPOS>BOND
     1     1     2    2
     2     1     3    1
     3     1     4    1
     4     3     5    1
     5     3     6    1
     6     3     7    1
     7     4     8    1
     8     4     9    1
     9     4    10    1

