@<TRIPOS>MOLECULE
DMS_1_A_402
 10 9 0 0 0
SMALL
NO_CHARGES

@<TRIPOS>ATOM
      1 S           6.1740   -0.9910   -6.2480 S.o    402  DMS402      0.0000
      2 O           7.2110   -0.8330   -7.2920 O.2    402  DMS402      0.0000
      3 C1          7.0440   -0.9020   -4.6840 C.3    402  DMS402      0.0000
      4 C2          5.7590   -2.7080   -6.1850 C.3    402  DMS402      0.0000
      5 H           6.3499   -1.1468   -3.8541 H      402  DMS402      0.0000
      6 H           7.4283    0.1283   -4.5382 H      402  DMS402      0.0000
      7 H           7.8968   -1.6114   -4.6759 H      402  DMS402      0.0000
      8 H           5.0943   -2.9039   -5.3187 H      402  DMS402      0.0000
      9 H           6.6758   -3.3257   -6.0940 H      402  DMS402      0.0000
     10 H           5.2252   -2.9905   -7.1155 H      402  DMS402      0.0000
@<TRIPOS>BOND
     1     1     2    2
     2     1     3    1
     3     1     4    1
     4     3     5    1
     5     3     6    1
     6     3     7    1
     7     4     8    1
     8     4     9    1
     9     4    10    1

