@<TRIPOS>MOLECULE
DMS_1_A_403
 10 9 0 0 0
SMALL
NO_CHARGES

@<TRIPOS>ATOM
      1 S           4.6680   18.9580    7.3690 S.o    403  DMS403      0.0000
      2 O           6.1460   19.1070    7.5650 O.2    403  DMS403      0.0000
      3 C1          3.9010   19.0550    9.0080 C.3    403  DMS403      0.0000
      4 C2          4.0010   20.4580    6.5970 C.3    403  DMS403      0.0000
      5 H           2.7973   19.0233    8.9031 H      403  DMS403      0.0000
      6 H           4.1999   19.9986    9.5088 H      403  DMS403      0.0000
      7 H           4.2344   18.1921    9.6201 H      403  DMS403      0.0000
      8 H           2.8955   20.3864    6.5421 H      403  DMS403      0.0000
      9 H           4.4127   20.5552    5.5716 H      403  DMS403      0.0000
     10 H           4.2875   21.3478    7.1942 H      403  DMS403      0.0000
@<TRIPOS>BOND
     1     1     2    2
     2     1     3    1
     3     1     4    1
     4     3     5    1
     5     3     6    1
     6     3     7    1
     7     4     8    1
     8     4     9    1
     9     4    10    1

