DMS_2_A_403
  -ISIS-            3D

 10  9  0  0  0  0  0  0  0  0  1 V2000
   -4.6680   18.9580   -7.3690 S   0  0  0  0  0
   -6.1460   19.1070   -7.5650 O   0  0  0  0  0
   -3.9010   19.0550   -9.0080 C   0  0  0  0  0
   -4.0010   20.4580   -6.5970 C   0  0  0  0  0
   -2.7973   19.0233   -8.9031 H   0  0  0  0  0
   -4.1999   19.9986   -9.5088 H   0  0  0  0  0
   -4.2344   18.1921   -9.6201 H   0  0  0  0  0
   -2.8955   20.3864   -6.5421 H   0  0  0  0  0
   -4.4127   20.5552   -5.5716 H   0  0  0  0  0
   -4.2875   21.3478   -7.1942 H   0  0  0  0  0
  1  2  2  0  0  0
  1  3  1  0  0  0
  1  4  1  0  0  0
  3  5  1  0  0  0
  3  6  1  0  0  0
  3  7  1  0  0  0
  4  8  1  0  0  0
  4  9  1  0  0  0
  4 10  1  0  0  0
M  END
$$$$
