DMS_1_A_403
  -ISIS-            3D

 10  9  0  0  0  0  0  0  0  0  1 V2000
    2.4740  -19.1860    8.1810 S   0  0  0  0  0
    1.4260  -18.3180    8.8070 O   0  0  0  0  0
    4.0820  -18.8410    8.9490 C   0  0  0  0  0
    2.2620  -20.8600    8.8640 C   0  0  0  0  0
    4.8363  -19.5635    8.5759 H   0  0  0  0  0
    4.0012  -18.9206   10.0525 H   0  0  0  0  0
    4.3997  -17.8130    8.6796 H   0  0  0  0  0
    3.0800  -21.5161    8.5027 H   0  0  0  0  0
    1.2897  -21.2709    8.5229 H   0  0  0  0  0
    2.2743  -20.8226    9.9727 H   0  0  0  0  0
  1  2  2  0  0  0
  1  3  1  0  0  0
  1  4  1  0  0  0
  3  5  1  0  0  0
  3  6  1  0  0  0
  3  7  1  0  0  0
  4  8  1  0  0  0
  4  9  1  0  0  0
  4 10  1  0  0  0
M  END
$$$$
