DMS_2_A_407
  -ISIS-            3D

 10  9  0  0  0  0  0  0  0  0  1 V2000
  -20.6870  -16.2460   -5.3680 S   0  0  0  0  0
  -21.0690  -15.3930   -4.2030 O   0  0  0  0  0
  -22.1310  -16.4830   -6.4410 C   0  0  0  0  0
  -20.4460  -17.9570   -4.8030 C   0  0  0  0  0
  -21.8703  -17.1763   -7.2666 H   0  0  0  0  0
  -22.4336  -15.5048   -6.8675 H   0  0  0  0  0
  -22.9724  -16.9033   -5.8529 H   0  0  0  0  0
  -20.2332  -18.6091   -5.6747 H   0  0  0  0  0
  -21.3590  -18.3142   -4.2839 H   0  0  0  0  0
  -19.5871  -17.9923   -4.1020 H   0  0  0  0  0
  1  2  2  0  0  0
  1  3  1  0  0  0
  1  4  1  0  0  0
  3  5  1  0  0  0
  3  6  1  0  0  0
  3  7  1  0  0  0
  4  8  1  0  0  0
  4  9  1  0  0  0
  4 10  1  0  0  0
M  END
$$$$
