@<TRIPOS>MOLECULE
DMS_1_A_408
 10 9 0 0 0
SMALL
NO_CHARGES

@<TRIPOS>ATOM
      1 S          24.7260  -12.2530   35.7960 S.o    408  DMS408      0.0000
      2 O          24.6660  -10.7620   35.6670 O.2    408  DMS408      0.0000
      3 C1         25.6710  -12.7090   37.2750 C.3    408  DMS408      0.0000
      4 C2         25.8420  -12.9890   34.5730 C.3    408  DMS408      0.0000
      5 H          25.7520  -13.8132   37.3409 H      408  DMS408      0.0000
      6 H          25.1442  -12.3295   38.1744 H      408  DMS408      0.0000
      7 H          26.6851  -12.2613   37.2296 H      408  DMS408      0.0000
      8 H          25.9099  -14.0834   34.7398 H      408  DMS408      0.0000
      9 H          26.8503  -12.5339   34.6579 H      408  DMS408      0.0000
     10 H          25.4413  -12.8009   33.5561 H      408  DMS408      0.0000
@<TRIPOS>BOND
     1     1     2    2
     2     1     3    1
     3     1     4    1
     4     3     5    1
     5     3     6    1
     6     3     7    1
     7     4     8    1
     8     4     9    1
     9     4    10    1

