@<TRIPOS>MOLECULE
DMS_1_A_404
 10 9 0 0 0
SMALL
NO_CHARGES

@<TRIPOS>ATOM
      1 S           6.9970  -28.2770   21.5700 S.o    404  DMS404      0.0000
      2 O           7.7490  -27.2400   22.3280 O.2    404  DMS404      0.0000
      3 C1          6.0180  -27.4450   20.3160 C.3    404  DMS404      0.0000
      4 C2          5.6760  -29.0010   22.5780 C.3    404  DMS404      0.0000
      5 H           5.4087  -28.1896   19.7641 H      404  DMS404      0.0000
      6 H           6.6949  -26.9306   19.6035 H      404  DMS404      0.0000
      7 H           5.3499  -26.6973   20.7908 H      404  DMS404      0.0000
      8 H           5.0856  -29.7105   21.9629 H      404  DMS404      0.0000
      9 H           5.0129  -28.1991   22.9627 H      404  DMS404      0.0000
     10 H           6.1266  -29.5460   23.4325 H      404  DMS404      0.0000
@<TRIPOS>BOND
     1     1     2    2
     2     1     3    1
     3     1     4    1
     4     3     5    1
     5     3     6    1
     6     3     7    1
     7     4     8    1
     8     4     9    1
     9     4    10    1

