@<TRIPOS>MOLECULE
DMS_2_A_403
 10 9 0 0 0
SMALL
NO_CHARGES

@<TRIPOS>ATOM
      1 S          -2.4740  -19.1860   -8.1810 S.o    403  DMS403      0.0000
      2 O          -1.4260  -18.3180   -8.8070 O.2    403  DMS403      0.0000
      3 C1         -4.0820  -18.8410   -8.9490 C.3    403  DMS403      0.0000
      4 C2         -2.2620  -20.8600   -8.8640 C.3    403  DMS403      0.0000
      5 H          -4.8363  -19.5635   -8.5759 H      403  DMS403      0.0000
      6 H          -4.0012  -18.9206  -10.0525 H      403  DMS403      0.0000
      7 H          -4.3997  -17.8130   -8.6796 H      403  DMS403      0.0000
      8 H          -3.0800  -21.5161   -8.5027 H      403  DMS403      0.0000
      9 H          -1.2897  -21.2709   -8.5229 H      403  DMS403      0.0000
     10 H          -2.2743  -20.8226   -9.9727 H      403  DMS403      0.0000
@<TRIPOS>BOND
     1     1     2    2
     2     1     3    1
     3     1     4    1
     4     3     5    1
     5     3     6    1
     6     3     7    1
     7     4     8    1
     8     4     9    1
     9     4    10    1

