@<TRIPOS>MOLECULE
DMS_1_A_406
 10 9 0 0 0
SMALL
NO_CHARGES

@<TRIPOS>ATOM
      1 S           6.1100    0.1320   18.4710 S.o    406  DMS406      0.0000
      2 O           7.3230    0.5860   17.7390 O.2    406  DMS406      0.0000
      3 C1          5.1640    1.6080   18.9550 C.3    406  DMS406      0.0000
      4 C2          6.6460   -0.4280   20.1150 C.3    406  DMS406      0.0000
      5 H           4.3117    1.3076   19.5981 H      406  DMS406      0.0000
      6 H           4.7756    2.1076   18.0440 H      406  DMS406      0.0000
      7 H           5.8191    2.3114   19.5088 H      406  DMS406      0.0000
      8 H           5.7570   -0.6757   20.7303 H      406  DMS406      0.0000
      9 H           7.2332    0.3705   20.6132 H      406  DMS406      0.0000
     10 H           7.2771   -1.3335   20.0046 H      406  DMS406      0.0000
@<TRIPOS>BOND
     1     1     2    2
     2     1     3    1
     3     1     4    1
     4     3     5    1
     5     3     6    1
     6     3     7    1
     7     4     8    1
     8     4     9    1
     9     4    10    1

