@<TRIPOS>MOLECULE
EDO_1_A_409
 10 9 0 0 0
SMALL
NO_CHARGES

@<TRIPOS>ATOM
      1 C1         12.5650    1.5020   -6.3980 C.3    409  EDO409      0.0000
      2 O1         11.9840    2.7740   -6.4190 O.3    409  EDO409      0.0000
      3 C2         12.4770    0.7460   -7.6390 C.3    409  EDO409      0.0000
      4 O2         11.8090    1.4090   -8.6620 O.3    409  EDO409      0.0000
      5 H          12.0932    0.9286   -5.5718 H      409  EDO409      0.0000
      6 H          13.6284    1.6195   -6.0993 H      409  EDO409      0.0000
      7 H          11.6021    2.9001   -7.2797 H      409  EDO409      0.0000
      8 H          11.9679   -0.2247   -7.4526 H      409  EDO409      0.0000
      9 H          13.4985    0.4863   -7.9931 H      409  EDO409      0.0000
     10 H          11.7932    0.8533   -9.4298 H      409  EDO409      0.0000
@<TRIPOS>BOND
     1     1     2    1
     2     1     3    1
     3     1     5    1
     4     1     6    1
     5     2     7    1
     6     3     4    1
     7     3     8    1
     8     3     9    1
     9     4    10    1

