EDO_1_B_405
  -ISIS-            3D

 10  9  0  0  0  0  0  0  0  0  1 V2000
  -10.7160    4.8910    7.6250 C   0  0  0  0  0
  -11.2800    3.5720    7.5470 O   0  0  0  0  0
  -11.8160    5.8360    7.1530 C   0  0  0  0  0
  -12.5340    5.1010    6.1530 O   0  0  0  0  0
   -9.8294    4.9572    6.9594 H   0  0  0  0  0
  -10.3964    5.1221    8.6619 H   0  0  0  0  0
  -10.5933    2.9473    7.7385 H   0  0  0  0  0
  -11.4018    6.7691    6.7210 H   0  0  0  0  0
  -12.5022    6.1085    7.9819 H   0  0  0  0  0
  -12.8692    4.3076    6.5513 H   0  0  0  0  0
  1  2  1  0  0  0
  1  3  1  0  0  0
  1  5  1  0  0  0
  1  6  1  0  0  0
  2  7  1  0  0  0
  3  4  1  0  0  0
  3  8  1  0  0  0
  3  9  1  0  0  0
  4 10  1  0  0  0
M  END
$$$$
