@<TRIPOS>MOLECULE
EDO_1_A_408
 10 9 0 0 0
SMALL
NO_CHARGES

@<TRIPOS>ATOM
      1 C1         33.5460   -2.3370  -41.2830 C.3    408  EDO408      0.0000
      2 O1         33.8100   -3.4430  -42.1430 O.3    408  EDO408      0.0000
      3 C2         32.0770   -2.2120  -40.8670 C.3    408  EDO408      0.0000
      4 O2         31.9580   -0.8030  -40.6460 O.3    408  EDO408      0.0000
      5 H          33.8657   -1.4154  -41.8171 H      408  EDO408      0.0000
      6 H          34.1856   -2.4136  -40.3778 H      408  EDO408      0.0000
      7 H          34.7286   -3.4258  -42.3768 H      408  EDO408      0.0000
      8 H          31.8496   -2.7882  -39.9471 H      408  EDO408      0.0000
      9 H          31.3949   -2.5272  -41.6836 H      408  EDO408      0.0000
     10 H          31.0589   -0.6186  -40.4081 H      408  EDO408      0.0000
@<TRIPOS>BOND
     1     1     2    1
     2     1     3    1
     3     1     5    1
     4     1     6    1
     5     2     7    1
     6     3     4    1
     7     3     8    1
     8     3     9    1
     9     4    10    1

