EDO_1_B_404
  -ISIS-            3D

 10  9  0  0  0  0  0  0  0  0  1 V2000
    6.7510    5.8770   -3.7320 C   0  0  0  0  0
    7.9220    6.1990   -4.4900 O   0  0  0  0  0
    5.5210    6.4540   -4.4250 C   0  0  0  0  0
    5.4070    5.8310   -5.7090 O   0  0  0  0  0
    6.8540    6.3144   -2.7173 H   0  0  0  0  0
    6.6633    4.7772   -3.6054 H   0  0  0  0  0
    8.0134    5.5397   -5.1659 H   0  0  0  0  0
    5.5926    7.5568   -4.5318 H   0  0  0  0  0
    4.6069    6.2343   -3.8358 H   0  0  0  0  0
    5.9820    6.2970   -6.3026 H   0  0  0  0  0
  1  2  1  0  0  0
  1  3  1  0  0  0
  1  5  1  0  0  0
  1  6  1  0  0  0
  2  7  1  0  0  0
  3  4  1  0  0  0
  3  8  1  0  0  0
  3  9  1  0  0  0
  4 10  1  0  0  0
M  END
$$$$
