EDO_1_A_405
  -ISIS-            3D

 10  9  0  0  0  0  0  0  0  0  1 V2000
   25.4360   -9.1900  -36.8190 C   0  0  0  0  0
   25.0700   -8.0940  -37.6690 O   0  0  0  0  0
   24.5770  -10.3980  -37.1870 C   0  0  0  0  0
   25.3710  -11.4210  -37.7990 O   0  0  0  0  0
   25.2873   -8.9058  -35.7556 H   0  0  0  0  0
   26.5163   -9.4053  -36.9477 H   0  0  0  0  0
   24.3398   -7.6356  -37.2739 H   0  0  0  0  0
   23.7368  -10.1216  -37.8577 H   0  0  0  0  0
   24.1188  -10.8234  -36.2698 H   0  0  0  0  0
   25.6334  -11.1095  -38.6554 H   0  0  0  0  0
  1  2  1  0  0  0
  1  3  1  0  0  0
  1  5  1  0  0  0
  1  6  1  0  0  0
  2  7  1  0  0  0
  3  4  1  0  0  0
  3  8  1  0  0  0
  3  9  1  0  0  0
  4 10  1  0  0  0
M  END
$$$$
