@<TRIPOS>MOLECULE
EDO_1_A_403
 10 9 0 0 0
SMALL
NO_CHARGES

@<TRIPOS>ATOM
      1 C1         15.1530  -11.0200   -7.0020 C.3    403  EDO403      0.0000
      2 O1         16.0770   -9.9220   -6.9940 O.3    403  EDO403      0.0000
      3 C2         13.7220  -10.4950   -7.0780 C.3    403  EDO403      0.0000
      4 O2         13.6170   -9.2290   -6.4090 O.3    403  EDO403      0.0000
      5 H          15.2950  -11.6067   -6.0699 H      403  EDO403      0.0000
      6 H          15.3807  -11.6946   -7.8523 H      403  EDO403      0.0000
      7 H          15.6795   -9.2285   -6.4802 H      403  EDO403      0.0000
      8 H          13.0134  -11.2235   -6.6310 H      403  EDO403      0.0000
      9 H          13.4309  -10.3612   -8.1419 H      403  EDO403      0.0000
     10 H          12.7255   -8.9202   -6.4990 H      403  EDO403      0.0000
@<TRIPOS>BOND
     1     1     2    1
     2     1     3    1
     3     1     5    1
     4     1     6    1
     5     2     7    1
     6     3     4    1
     7     3     8    1
     8     3     9    1
     9     4    10    1

