@<TRIPOS>MOLECULE
EDO_1_B_405
 10 9 0 0 0
SMALL
NO_CHARGES

@<TRIPOS>ATOM
      1 C1        -10.7160    4.8910    7.6250 C.3    405  EDO405      0.0000
      2 O1        -11.2800    3.5720    7.5470 O.3    405  EDO405      0.0000
      3 C2        -11.8160    5.8360    7.1530 C.3    405  EDO405      0.0000
      4 O2        -12.5340    5.1010    6.1530 O.3    405  EDO405      0.0000
      5 H          -9.8294    4.9572    6.9594 H      405  EDO405      0.0000
      6 H         -10.3964    5.1221    8.6619 H      405  EDO405      0.0000
      7 H         -10.5933    2.9473    7.7385 H      405  EDO405      0.0000
      8 H         -11.4018    6.7691    6.7210 H      405  EDO405      0.0000
      9 H         -12.5022    6.1085    7.9819 H      405  EDO405      0.0000
     10 H         -12.8692    4.3076    6.5513 H      405  EDO405      0.0000
@<TRIPOS>BOND
     1     1     2    1
     2     1     3    1
     3     1     5    1
     4     1     6    1
     5     2     7    1
     6     3     4    1
     7     3     8    1
     8     3     9    1
     9     4    10    1

