@<TRIPOS>MOLECULE
EDO_1_A_402
 10 9 0 0 0
SMALL
NO_CHARGES

@<TRIPOS>ATOM
      1 C1         23.6970   -3.3200   -9.8470 C.3    402  EDO402      0.0000
      2 O1         25.0580   -2.8700   -9.8080 O.3    402  EDO402      0.0000
      3 C2         23.6910   -4.6630  -10.5690 C.3    402  EDO402      0.0000
      4 O2         22.5240   -5.4190  -10.2320 O.3    402  EDO402      0.0000
      5 H          23.0557   -2.5810  -10.3710 H      402  EDO402      0.0000
      6 H          23.3216   -3.4286   -8.8077 H      402  EDO402      0.0000
      7 H          25.0741   -2.0102   -9.4088 H      402  EDO402      0.0000
      8 H          24.5932   -5.2552  -10.3044 H      402  EDO402      0.0000
      9 H          23.7194   -4.5097  -11.6676 H      402  EDO402      0.0000
     10 H          22.6853   -5.8694   -9.4133 H      402  EDO402      0.0000
@<TRIPOS>BOND
     1     1     2    1
     2     1     3    1
     3     1     5    1
     4     1     6    1
     5     2     7    1
     6     3     4    1
     7     3     8    1
     8     3     9    1
     9     4    10    1

