@<TRIPOS>MOLECULE
EDO_1_B_402
 10 9 0 0 0
SMALL
NO_CHARGES

@<TRIPOS>ATOM
      1 C1        -12.6580  -11.9160   -5.9470 C.3    402  EDO402      0.0000
      2 O1        -13.4690  -12.7190   -5.1620 O.3    402  EDO402      0.0000
      3 C2        -13.1470  -10.5590   -5.9250 C.3    402  EDO402      0.0000
      4 O2        -12.6060   -9.7910   -6.8780 O.3    402  EDO402      0.0000
      5 H         -12.6780  -12.3188   -6.9819 H      402  EDO402      0.0000
      6 H         -11.6037  -11.9812   -5.6030 H      402  EDO402      0.0000
      7 H         -13.2610  -12.5789   -4.2468 H      402  EDO402      0.0000
      8 H         -12.9831  -10.0933   -4.9291 H      402  EDO402      0.0000
      9 H         -14.2472  -10.5553   -6.0811 H      402  EDO402      0.0000
     10 H         -11.6973   -9.6137   -6.6729 H      402  EDO402      0.0000
@<TRIPOS>BOND
     1     1     2    1
     2     1     3    1
     3     1     5    1
     4     1     6    1
     5     2     7    1
     6     3     4    1
     7     3     8    1
     8     3     9    1
     9     4    10    1

