@<TRIPOS>MOLECULE
EDO_1_B_404
 10 9 0 0 0
SMALL
NO_CHARGES

@<TRIPOS>ATOM
      1 C1          6.7510    5.8770   -3.7320 C.3    404  EDO404      0.0000
      2 O1          7.9220    6.1990   -4.4900 O.3    404  EDO404      0.0000
      3 C2          5.5210    6.4540   -4.4250 C.3    404  EDO404      0.0000
      4 O2          5.4070    5.8310   -5.7090 O.3    404  EDO404      0.0000
      5 H           6.8540    6.3144   -2.7173 H      404  EDO404      0.0000
      6 H           6.6633    4.7772   -3.6054 H      404  EDO404      0.0000
      7 H           8.0134    5.5397   -5.1659 H      404  EDO404      0.0000
      8 H           5.5926    7.5568   -4.5318 H      404  EDO404      0.0000
      9 H           4.6069    6.2343   -3.8358 H      404  EDO404      0.0000
     10 H           5.9820    6.2970   -6.3026 H      404  EDO404      0.0000
@<TRIPOS>BOND
     1     1     2    1
     2     1     3    1
     3     1     5    1
     4     1     6    1
     5     2     7    1
     6     3     4    1
     7     3     8    1
     8     3     9    1
     9     4    10    1

