EDO_1_A_408
  -ISIS-            3D

 10  9  0  0  0  0  0  0  0  0  1 V2000
   33.5460   -2.3370  -41.2830 C   0  0  0  0  0
   33.8100   -3.4430  -42.1430 O   0  0  0  0  0
   32.0770   -2.2120  -40.8670 C   0  0  0  0  0
   31.9580   -0.8030  -40.6460 O   0  0  0  0  0
   33.8657   -1.4154  -41.8171 H   0  0  0  0  0
   34.1856   -2.4136  -40.3778 H   0  0  0  0  0
   34.7286   -3.4258  -42.3768 H   0  0  0  0  0
   31.8496   -2.7882  -39.9471 H   0  0  0  0  0
   31.3949   -2.5272  -41.6836 H   0  0  0  0  0
   31.0589   -0.6186  -40.4081 H   0  0  0  0  0
  1  2  1  0  0  0
  1  3  1  0  0  0
  1  5  1  0  0  0
  1  6  1  0  0  0
  2  7  1  0  0  0
  3  4  1  0  0  0
  3  8  1  0  0  0
  3  9  1  0  0  0
  4 10  1  0  0  0
M  END
$$$$
