EDO_1_A_401
  -ISIS-            3D

 10  9  0  0  0  0  0  0  0  0  1 V2000
   22.4910   -9.1560   -8.4020 C   0  0  0  0  0
   22.3530   -8.0310   -9.2810 O   0  0  0  0  0
   21.6500  -10.2790   -8.9980 C   0  0  0  0  0
   20.4000   -9.6970   -9.3960 O   0  0  0  0  0
   22.1317   -8.8810   -7.3883 H   0  0  0  0  0
   23.5584   -9.4449   -8.3212 H   0  0  0  0  0
   21.4240   -7.9123   -9.4408 H   0  0  0  0  0
   21.4831  -11.0889   -8.2578 H   0  0  0  0  0
   22.1556  -10.7180   -9.8840 H   0  0  0  0  0
   19.8726  -10.3770   -9.7930 H   0  0  0  0  0
  1  2  1  0  0  0
  1  3  1  0  0  0
  1  5  1  0  0  0
  1  6  1  0  0  0
  2  7  1  0  0  0
  3  4  1  0  0  0
  3  8  1  0  0  0
  3  9  1  0  0  0
  4 10  1  0  0  0
M  END
$$$$
