DMS_1_A_402
  -ISIS-            3D

 10  9  0  0  0  0  0  0  0  0  1 V2000
    6.0920   -1.1020   -6.3220 S   0  0  0  0  0
    7.0520   -0.7950   -7.4270 O   0  0  0  0  0
    7.0640   -1.0740   -4.8240 C   0  0  0  0  0
    5.7740   -2.8340   -6.3870 C   0  0  0  0  0
    6.4482   -1.4246   -3.9706 H   0  0  0  0  0
    7.3971   -0.0352   -4.6232 H   0  0  0  0  0
    7.9552   -1.7261   -4.9302 H   0  0  0  0  0
    5.1835   -3.1424   -5.5002 H   0  0  0  0  0
    6.7263   -3.4024   -6.4118 H   0  0  0  0  0
    5.1918   -3.0667   -7.3021 H   0  0  0  0  0
  1  2  2  0  0  0
  1  3  1  0  0  0
  1  4  1  0  0  0
  3  5  1  0  0  0
  3  6  1  0  0  0
  3  7  1  0  0  0
  4  8  1  0  0  0
  4  9  1  0  0  0
  4 10  1  0  0  0
M  END
$$$$
