@<TRIPOS>MOLECULE
DMS_2_A_403
 10 9 0 0 0
SMALL
NO_CHARGES

@<TRIPOS>ATOM
      1 S          -2.4130  -19.0900   -8.0950 S.o    403  DMS403      0.0000
      2 O          -3.6960  -18.7750   -8.8250 O.2    403  DMS403      0.0000
      3 C1         -1.1320  -18.2440   -8.9930 C.3    403  DMS403      0.0000
      4 C2         -1.9880  -20.7390   -8.6100 C.3    403  DMS403      0.0000
      5 H          -0.1373  -18.5613   -8.6186 H      403  DMS403      0.0000
      6 H          -1.2394  -17.1506   -8.8400 H      403  DMS403      0.0000
      7 H          -1.2072  -18.4653  -10.0775 H      403  DMS403      0.0000
      8 H          -0.9715  -20.9961   -8.2482 H      403  DMS403      0.0000
      9 H          -2.0187  -20.8204   -9.7160 H      403  DMS403      0.0000
     10 H          -2.7139  -21.4564   -8.1753 H      403  DMS403      0.0000
@<TRIPOS>BOND
     1     1     2    2
     2     1     3    1
     3     1     4    1
     4     3     5    1
     5     3     6    1
     6     3     7    1
     7     4     8    1
     8     4     9    1
     9     4    10    1

