DMS_2_A_405
  -ISIS-            3D

 10  9  0  0  0  0  0  0  0  0  1 V2000
  -21.2750   14.5030   -7.9200 S   0  0  0  0  0
  -22.7140   14.1650   -7.6150 O   0  0  0  0  0
  -20.3390   13.9510   -6.5200 C   0  0  0  0  0
  -20.7320   13.2640   -9.0650 C   0  0  0  0  0
  -19.2541   14.0242   -6.7392 H   0  0  0  0  0
  -20.5957   12.9013   -6.2709 H   0  0  0  0  0
  -20.5711   14.5953   -5.6473 H   0  0  0  0  0
  -19.6377   13.3512   -9.2239 H   0  0  0  0  0
  -21.2461   13.4122  -10.0357 H   0  0  0  0  0
  -20.9701   12.2505   -8.6824 H   0  0  0  0  0
  1  2  2  0  0  0
  1  3  1  0  0  0
  1  4  1  0  0  0
  3  5  1  0  0  0
  3  6  1  0  0  0
  3  7  1  0  0  0
  4  8  1  0  0  0
  4  9  1  0  0  0
  4 10  1  0  0  0
M  END
$$$$
