DMS_1_A_401
  -ISIS-            3D

 10  9  0  0  0  0  0  0  0  0  1 V2000
    7.1070  -28.1150   21.5990 S   0  0  0  0  0
    7.8510  -27.1100   22.3730 O   0  0  0  0  0
    5.7790  -28.7040   22.6210 C   0  0  0  0  0
    6.1310  -27.2160   20.4340 C   0  0  0  0  0
    5.1114  -29.3625   22.0287 H   0  0  0  0  0
    5.1947  -27.8516   23.0248 H   0  0  0  0  0
    6.1981  -29.2867   23.4667 H   0  0  0  0  0
    5.4495  -27.9083   19.8987 H   0  0  0  0  0
    6.7980  -26.7290   19.6935 H   0  0  0  0  0
    5.5338  -26.4354   20.9488 H   0  0  0  0  0
  1  2  2  0  0  0
  1  3  1  0  0  0
  1  4  1  0  0  0
  3  5  1  0  0  0
  3  6  1  0  0  0
  3  7  1  0  0  0
  4  8  1  0  0  0
  4  9  1  0  0  0
  4 10  1  0  0  0
M  END
$$$$
