DMS_1_A_404
  -ISIS-            3D

 10  9  0  0  0  0  0  0  0  0  1 V2000
  -23.6330   18.3190   79.5230 S   0  0  0  0  0
  -22.2160   17.9550   79.8290 O   0  0  0  0  0
  -23.6630   19.4090   78.0820 C   0  0  0  0  0
  -24.5220   16.8960   78.8330 C   0  0  0  0  0
  -24.7136   19.6391   77.8110 H   0  0  0  0  0
  -23.1563   18.9181   77.2259 H   0  0  0  0  0
  -23.1355   20.3534   78.3274 H   0  0  0  0  0
  -25.5483   17.2027   78.5450 H   0  0  0  0  0
  -24.5819   16.0971   79.6001 H   0  0  0  0  0
  -23.9837   16.5103   77.9430 H   0  0  0  0  0
  1  2  2  0  0  0
  1  3  1  0  0  0
  1  4  1  0  0  0
  3  5  1  0  0  0
  3  6  1  0  0  0
  3  7  1  0  0  0
  4  8  1  0  0  0
  4  9  1  0  0  0
  4 10  1  0  0  0
M  END
$$$$
