@<TRIPOS>MOLECULE
DMS_2_A_403
 10 9 0 0 0
SMALL
NO_CHARGES

@<TRIPOS>ATOM
      1 S         -26.2450   32.5010   39.8930 S.o    403  DMS403      0.0000
      2 O         -25.4680   33.4900   40.7020 O.2    403  DMS403      0.0000
      3 C1        -28.0220   32.7850   40.1070 C.3    403  DMS403      0.0000
      4 C2        -26.0730   32.9220   38.1390 C.3    403  DMS403      0.0000
      5 H         -28.5901   32.0990   39.4460 H      403  DMS403      0.0000
      6 H         -28.2687   33.8363   39.8534 H      403  DMS403      0.0000
      7 H         -28.2990   32.5874   41.1627 H      403  DMS403      0.0000
      8 H         -26.6961   32.2360   37.5295 H      403  DMS403      0.0000
      9 H         -25.0106   32.8130   37.8393 H      403  DMS403      0.0000
     10 H         -26.3968   33.9693   37.9692 H      403  DMS403      0.0000
@<TRIPOS>BOND
     1     1     2    2
     2     1     3    1
     3     1     4    1
     4     3     5    1
     5     3     6    1
     6     3     7    1
     7     4     8    1
     8     4     9    1
     9     4    10    1

