DMS_1_A_401
  -ISIS-            3D

 10  9  0  0  0  0  0  0  0  0  1 V2000
  -12.8480    9.0810   73.0560 S   0  0  0  0  0
  -13.4980    8.8960   74.4170 O   0  0  0  0  0
  -12.8970   10.8360   72.5950 C   0  0  0  0  0
  -13.9510    8.5250   71.7300 C   0  0  0  0  0
  -12.4901   10.9667   71.5714 H   0  0  0  0  0
  -12.2748   11.4150   73.3077 H   0  0  0  0  0
  -13.9399   11.2117   72.6351 H   0  0  0  0  0
  -13.4953    8.7488   70.7438 H   0  0  0  0  0
  -14.9336    9.0328   71.8133 H   0  0  0  0  0
  -14.1000    7.4295   71.8188 H   0  0  0  0  0
  1  2  2  0  0  0
  1  3  1  0  0  0
  1  4  1  0  0  0
  3  5  1  0  0  0
  3  6  1  0  0  0
  3  7  1  0  0  0
  4  8  1  0  0  0
  4  9  1  0  0  0
  4 10  1  0  0  0
M  END
$$$$
