@<TRIPOS>MOLECULE
DMS_2_A_402
 10 9 0 0 0
SMALL
NO_CHARGES

@<TRIPOS>ATOM
      1 S         -12.1070   15.1940   46.6100 S.o    402  DMS402      0.0000
      2 O         -12.1180   13.9370   47.4220 O.2    402  DMS402      0.0000
      3 C1        -13.1890   14.9920   45.1590 C.3    402  DMS402      0.0000
      4 C2        -12.9550   16.5030   47.5540 C.3    402  DMS402      0.0000
      5 H         -13.2296   15.9454   44.5937 H      402  DMS402      0.0000
      6 H         -14.2097   14.7108   45.4899 H      402  DMS402      0.0000
      7 H         -12.7791   14.1947   44.5059 H      402  DMS402      0.0000
      8 H         -13.0033   17.4265   46.9417 H      402  DMS402      0.0000
      9 H         -12.3875   16.7084   48.4846 H      402  DMS402      0.0000
     10 H         -13.9820   16.1725   47.8121 H      402  DMS402      0.0000
@<TRIPOS>BOND
     1     1     2    2
     2     1     3    1
     3     1     4    1
     4     3     5    1
     5     3     6    1
     6     3     7    1
     7     4     8    1
     8     4     9    1
     9     4    10    1

