@<TRIPOS>MOLECULE
DMS_1_A_402
 10 9 0 0 0
SMALL
NO_CHARGES

@<TRIPOS>ATOM
      1 S         -30.4250   15.1940   47.7210 S.o    402  DMS402      0.0000
      2 O         -30.4140   13.9370   46.9090 O.2    402  DMS402      0.0000
      3 C1        -29.3430   14.9920   49.1720 C.3    402  DMS402      0.0000
      4 C2        -29.5770   16.5030   46.7770 C.3    402  DMS402      0.0000
      5 H         -29.3025   15.9454   49.7373 H      402  DMS402      0.0000
      6 H         -28.3223   14.7108   48.8411 H      402  DMS402      0.0000
      7 H         -29.7529   14.1947   49.8251 H      402  DMS402      0.0000
      8 H         -29.5287   17.4265   47.3893 H      402  DMS402      0.0000
      9 H         -30.1445   16.7084   45.8464 H      402  DMS402      0.0000
     10 H         -28.5500   16.1725   46.5189 H      402  DMS402      0.0000
@<TRIPOS>BOND
     1     1     2    2
     2     1     3    1
     3     1     4    1
     4     3     5    1
     5     3     6    1
     6     3     7    1
     7     4     8    1
     8     4     9    1
     9     4    10    1

