DMS_1_A_403
  -ISIS-            3D

 10  9  0  0  0  0  0  0  0  0  1 V2000
  -16.2870   32.5010   54.4380 S   0  0  0  0  0
  -17.0640   33.4900   53.6290 O   0  0  0  0  0
  -14.5100   32.7850   54.2240 C   0  0  0  0  0
  -16.4590   32.9220   56.1920 C   0  0  0  0  0
  -13.9419   32.0990   54.8850 H   0  0  0  0  0
  -14.2633   33.8363   54.4776 H   0  0  0  0  0
  -14.2330   32.5874   53.1683 H   0  0  0  0  0
  -15.8359   32.2360   56.8015 H   0  0  0  0  0
  -17.5214   32.8130   56.4917 H   0  0  0  0  0
  -16.1352   33.9693   56.3619 H   0  0  0  0  0
  1  2  2  0  0  0
  1  3  1  0  0  0
  1  4  1  0  0  0
  3  5  1  0  0  0
  3  6  1  0  0  0
  3  7  1  0  0  0
  4  8  1  0  0  0
  4  9  1  0  0  0
  4 10  1  0  0  0
M  END
$$$$
