@<TRIPOS>MOLECULE
DMS_1_A_401
 10 9 0 0 0
SMALL
NO_CHARGES

@<TRIPOS>ATOM
      1 S         -12.8480    9.0810   73.0560 S.o    401  DMS401      0.0000
      2 O         -13.4980    8.8960   74.4170 O.2    401  DMS401      0.0000
      3 C1        -12.8970   10.8360   72.5950 C.3    401  DMS401      0.0000
      4 C2        -13.9510    8.5250   71.7300 C.3    401  DMS401      0.0000
      5 H         -12.4901   10.9667   71.5714 H      401  DMS401      0.0000
      6 H         -12.2748   11.4150   73.3077 H      401  DMS401      0.0000
      7 H         -13.9399   11.2117   72.6351 H      401  DMS401      0.0000
      8 H         -13.4953    8.7488   70.7438 H      401  DMS401      0.0000
      9 H         -14.9336    9.0328   71.8133 H      401  DMS401      0.0000
     10 H         -14.1000    7.4295   71.8188 H      401  DMS401      0.0000
@<TRIPOS>BOND
     1     1     2    2
     2     1     3    1
     3     1     4    1
     4     3     5    1
     5     3     6    1
     6     3     7    1
     7     4     8    1
     8     4     9    1
     9     4    10    1

