@<TRIPOS>MOLECULE
DMS_2_A_404
 10 9 0 0 0
SMALL
NO_CHARGES

@<TRIPOS>ATOM
      1 S         -18.8990   18.3190   14.8080 S.o    404  DMS404      0.0000
      2 O         -20.3160   17.9550   14.5020 O.2    404  DMS404      0.0000
      3 C1        -18.8690   19.4090   16.2490 C.3    404  DMS404      0.0000
      4 C2        -18.0100   16.8960   15.4980 C.3    404  DMS404      0.0000
      5 H         -17.8184   19.6391   16.5200 H      404  DMS404      0.0000
      6 H         -19.3757   18.9181   17.1051 H      404  DMS404      0.0000
      7 H         -19.3965   20.3534   16.0036 H      404  DMS404      0.0000
      8 H         -16.9837   17.2027   15.7860 H      404  DMS404      0.0000
      9 H         -17.9501   16.0971   14.7309 H      404  DMS404      0.0000
     10 H         -18.5483   16.5103   16.3880 H      404  DMS404      0.0000
@<TRIPOS>BOND
     1     1     2    2
     2     1     3    1
     3     1     4    1
     4     3     5    1
     5     3     6    1
     6     3     7    1
     7     4     8    1
     8     4     9    1
     9     4    10    1

