DMS_2_A_401
  -ISIS-            3D

 10  9  0  0  0  0  0  0  0  0  1 V2000
  -29.6840    9.0810   21.2750 S   0  0  0  0  0
  -29.0340    8.8960   19.9140 O   0  0  0  0  0
  -29.6350   10.8360   21.7360 C   0  0  0  0  0
  -28.5810    8.5250   22.6010 C   0  0  0  0  0
  -30.0419   10.9667   22.7596 H   0  0  0  0  0
  -30.2572   11.4150   21.0233 H   0  0  0  0  0
  -28.5921   11.2117   21.6959 H   0  0  0  0  0
  -29.0367    8.7488   23.5872 H   0  0  0  0  0
  -27.5984    9.0328   22.5177 H   0  0  0  0  0
  -28.4319    7.4295   22.5122 H   0  0  0  0  0
  1  2  2  0  0  0
  1  3  1  0  0  0
  1  4  1  0  0  0
  3  5  1  0  0  0
  3  6  1  0  0  0
  3  7  1  0  0  0
  4  8  1  0  0  0
  4  9  1  0  0  0
  4 10  1  0  0  0
M  END
$$$$
