DMS_1_A_402
  -ISIS-            3D

 10  9  0  0  0  0  0  0  0  0  1 V2000
  -30.4250   15.1940   47.7210 S   0  0  0  0  0
  -30.4140   13.9370   46.9090 O   0  0  0  0  0
  -29.3430   14.9920   49.1720 C   0  0  0  0  0
  -29.5770   16.5030   46.7770 C   0  0  0  0  0
  -29.3025   15.9454   49.7373 H   0  0  0  0  0
  -28.3223   14.7108   48.8411 H   0  0  0  0  0
  -29.7529   14.1947   49.8251 H   0  0  0  0  0
  -29.5287   17.4265   47.3893 H   0  0  0  0  0
  -30.1445   16.7084   45.8464 H   0  0  0  0  0
  -28.5500   16.1725   46.5189 H   0  0  0  0  0
  1  2  2  0  0  0
  1  3  1  0  0  0
  1  4  1  0  0  0
  3  5  1  0  0  0
  3  6  1  0  0  0
  3  7  1  0  0  0
  4  8  1  0  0  0
  4  9  1  0  0  0
  4 10  1  0  0  0
M  END
$$$$
