@<TRIPOS>MOLECULE
NOL_1_A_401
 93 95 0 0 0
SMALL
NO_CHARGES

@<TRIPOS>ATOM
      1 C1         19.8790   41.1950  -12.3210 C.ar   401  NOL401      0.0000
      2 C2         19.2270   40.1360  -12.9480 C.ar   401  NOL401      0.0000
      3 C3         19.7260   39.6520  -14.1680 C.ar   401  NOL401      0.0000
      4 C4         20.8730   40.2170  -14.7350 C.ar   401  NOL401      0.0000
      5 C5         21.5350   41.2720  -14.0940 C.ar   401  NOL401      0.0000
      6 C6         21.0310   41.7660  -12.8890 C.ar   401  NOL401      0.0000
      7 C13        17.9540   39.5180  -12.3150 C.3    401  NOL401      0.0000
      8 O15        18.2370   38.7740  -11.1390 O.3    401  NOL401      0.0000
      9 C17        18.7400   37.4580  -11.2510 C.2    401  NOL401      0.0000
     10 N19        19.2500   36.8030  -10.0730 N.am   401  NOL401      0.0000
     11 C21        19.9000   35.5310  -10.2220 C.3    401  NOL401      0.0000
     12 C23        18.9850   34.5320   -9.5470 C.2    401  NOL401      0.0000
     13 N25        18.4490   33.4050  -10.2760 N.am   401  NOL401      0.0000
     14 C27        17.6130   32.4200   -9.6760 C.3    401  NOL401      0.0000
     15 C29        18.3680   31.5620   -8.6550 C.2    401  NOL401      0.0000
     16 N31        17.7290   31.2270   -7.4130 N.am   401  NOL401      0.0000
     17 C33        18.3160   30.4040   -6.4000 C.3    401  NOL401      0.0000
     18 C35        17.2630   29.4400   -5.9960 C.3    401  NOL401      0.0000
     19 O39        17.9580   28.2690   -5.6080 O.3    401  NOL401      0.0000
     20 C41        18.7320   31.2340   -5.1790 C.3    401  NOL401      0.0000
     21 C43        19.8020   32.2350   -5.5120 C.3    401  NOL401      0.0000
     22 C45        21.0950   31.4990   -5.8970 C.3    401  NOL401      0.0000
     23 C47        22.1860   32.5470   -5.5620 C.3    401  NOL401      0.0000
     24 N49        21.6510   33.2660   -4.4370 N.am   401  NOL401      0.0000
     25 C51        20.1560   33.0870   -4.3460 C.2    401  NOL401      0.0000
     26 O54        19.4420   33.5870   -3.5030 O.2    401  NOL401      0.0000
     27 O56        19.4400   31.1420   -8.9180 O.2    401  NOL401      0.0000
     28 C58        16.8950   31.5040  -10.6740 C.3    401  NOL401      0.0000
     29 C60        16.3280   32.2680  -11.9000 C.3    401  NOL401      0.0000
     30 C62        15.1980   33.1750  -11.3900 C.3    401  NOL401      0.0000
     31 C63        14.1670   33.6280  -12.4340 C.3    401  NOL401      0.0000
     32 C64        14.0660   32.7680  -13.6960 C.3    401  NOL401      0.0000
     33 C65        14.5230   31.3300  -13.4970 C.3    401  NOL401      0.0000
     34 C66        15.9550   31.2500  -12.9970 C.3    401  NOL401      0.0000
     35 O73        18.7120   34.7000   -8.4190 O.2    401  NOL401      0.0000
     36 C75        21.2730   35.6210   -9.5430 C.3    401  NOL401      0.0000
     37 C77        21.8840   34.2230   -9.4530 C.3    401  NOL401      0.0000
     38 O79        22.0770   36.5500  -10.2960 O.3    401  NOL401      0.0000
     39 C81        22.9210   37.5060   -9.7040 C.3    401  NOL401      0.0000
     40 C83        23.7940   38.0920  -10.8100 C.3    401  NOL401      0.0000
     41 C85        22.1200   38.6480   -9.0980 C.3    401  NOL401      0.0000
     42 C87        23.8150   36.8940   -8.6200 C.3    401  NOL401      0.0000
     43 O89        18.7750   36.8420  -12.2760 O.2    401  NOL401      0.0000
     44 H          19.4940   41.5918  -11.3661 H      401  NOL401      0.0000
     45 H          19.2193   38.8189  -14.6839 H      401  NOL401      0.0000
     46 H          21.2609   39.8268  -15.6915 H      401  NOL401      0.0000
     47 H          22.4433   41.7114  -14.5399 H      401  NOL401      0.0000
     48 H          21.5393   42.6025  -12.3799 H      401  NOL401      0.0000
     49 H          17.4180   38.8955  -13.0606 H      401  NOL401      0.0000
     50 H          17.2569   40.3434  -12.0602 H      401  NOL401      0.0000
     51 H          19.1458   37.2465   -9.1518 H      401  NOL401      0.0000
     52 H          20.0475   35.2361  -11.2843 H      401  NOL401      0.0000
     53 H          18.7306   33.3055  -11.2589 H      401  NOL401      0.0000
     54 H          16.8141   32.9528   -9.1048 H      401  NOL401      0.0000
     55 H          16.7962   31.6269   -7.2366 H      401  NOL401      0.0000
     56 H          19.1923   29.8490   -6.8055 H      401  NOL401      0.0000
     57 H          16.6002   29.1815   -6.8514 H      401  NOL401      0.0000
     58 H          16.6176   29.8119   -5.1725 H      401  NOL401      0.0000
     59 H          17.3255   27.6144   -5.3434 H      401  NOL401      0.0000
     60 H          19.0798   30.5603   -4.3618 H      401  NOL401      0.0000
     61 H          17.8405   31.7738   -4.7820 H      401  NOL401      0.0000
     62 H          19.4808   32.9047   -6.3434 H      401  NOL401      0.0000
     63 H          21.1349   31.2020   -6.9672 H      401  NOL401      0.0000
     64 H          21.2451   30.5903   -5.2696 H      401  NOL401      0.0000
     65 H          22.3545   33.2256   -6.4286 H      401  NOL401      0.0000
     66 H          23.1528   32.0484   -5.3266 H      401  NOL401      0.0000
     67 H          22.1817   33.8367   -3.7673 H      401  NOL401      0.0000
     68 H          16.0978   30.9174  -10.1621 H      401  NOL401      0.0000
     69 H          17.6408   30.7605  -11.0424 H      401  NOL401      0.0000
     70 H          17.1100   32.9275  -12.3430 H      401  NOL401      0.0000
     71 H          15.6213   34.0706  -10.8791 H      401  NOL401      0.0000
     72 H          14.6343   32.6188  -10.6041 H      401  NOL401      0.0000
     73 H          14.3971   34.6757  -12.7401 H      401  NOL401      0.0000
     74 H          13.1654   33.6760  -11.9452 H      401  NOL401      0.0000
     75 H          14.6959   33.2264  -14.4945 H      401  NOL401      0.0000
     76 H          13.0206   32.7864  -14.0825 H      401  NOL401      0.0000
     77 H          14.4174   30.7572  -14.4475 H      401  NOL401      0.0000
     78 H          13.8483   30.8386  -12.7575 H      401  NOL401      0.0000
     79 H          16.1484   30.2085  -12.6519 H      401  NOL401      0.0000
     80 H          16.6401   31.4022  -13.8645 H      401  NOL401      0.0000
     81 H          21.1272   36.0006   -8.5072 H      401  NOL401      0.0000
     82 H          22.8977   34.2436   -9.0006 H      401  NOL401      0.0000
     83 H          21.9891   33.7565  -10.4567 H      401  NOL401      0.0000
     84 H          21.2762   33.5340   -8.8287 H      401  NOL401      0.0000
     85 H          24.4932   38.8677  -10.4284 H      401  NOL401      0.0000
     86 H          23.1843   38.5670  -11.6101 H      401  NOL401      0.0000
     87 H          24.4137   37.3092  -11.3000 H      401  NOL401      0.0000
     88 H          22.7748   39.4504   -8.6936 H      401  NOL401      0.0000
     89 H          21.4749   38.3105   -8.2586 H      401  NOL401      0.0000
     90 H          21.4493   39.1240   -9.8469 H      401  NOL401      0.0000
     91 H          24.5222   37.6430   -8.2015 H      401  NOL401      0.0000
     92 H          24.4341   36.0614   -9.0191 H      401  NOL401      0.0000
     93 H          23.2362   36.4942   -7.7602 H      401  NOL401      0.0000
@<TRIPOS>BOND
     1     1     2   ar
     2     1     6   ar
     3     1    44    1
     4     2     3   ar
     5     2     7    1
     6     3     4   ar
     7     3    45    1
     8     4     5   ar
     9     4    46    1
    10     5     6   ar
    11     5    47    1
    12     6    48    1
    13     7     8    1
    14     7    49    1
    15     7    50    1
    16     8     9    1
    17     9    10    1
    18     9    43    2
    19    10    11    1
    20    10    51    1
    21    11    12    1
    22    11    36    1
    23    11    52    1
    24    12    13    1
    25    12    35    2
    26    13    14    1
    27    13    53    1
    28    14    15    1
    29    14    28    1
    30    14    54    1
    31    15    16    1
    32    15    27    2
    33    16    17    1
    34    16    55    1
    35    17    18    1
    36    17    20    1
    37    17    56    1
    38    18    19    1
    39    18    57    1
    40    18    58    1
    41    19    59    1
    42    20    21    1
    43    20    60    1
    44    20    61    1
    45    21    22    1
    46    21    25    1
    47    21    62    1
    48    22    23    1
    49    22    63    1
    50    22    64    1
    51    23    24    1
    52    23    65    1
    53    23    66    1
    54    24    25    1
    55    24    67    1
    56    25    26    2
    57    28    29    1
    58    28    68    1
    59    28    69    1
    60    29    30    1
    61    29    34    1
    62    29    70    1
    63    30    31    1
    64    30    71    1
    65    30    72    1
    66    31    32    1
    67    31    73    1
    68    31    74    1
    69    32    33    1
    70    32    75    1
    71    32    76    1
    72    33    34    1
    73    33    77    1
    74    33    78    1
    75    34    79    1
    76    34    80    1
    77    36    37    1
    78    36    38    1
    79    36    81    1
    80    37    82    1
    81    37    83    1
    82    37    84    1
    83    38    39    1
    84    39    40    1
    85    39    41    1
    86    39    42    1
    87    40    85    1
    88    40    86    1
    89    40    87    1
    90    41    88    1
    91    41    89    1
    92    41    90    1
    93    42    91    1
    94    42    92    1
    95    42    93    1

