NOL_1_A_401
  -ISIS-            3D

 93 95  0  0  0  0  0  0  0  0  1 V2000
   19.8790   41.1950  -12.3210 C   0  0  0  0  0
   19.2270   40.1360  -12.9480 C   0  0  0  0  0
   19.7260   39.6520  -14.1680 C   0  0  0  0  0
   20.8730   40.2170  -14.7350 C   0  0  0  0  0
   21.5350   41.2720  -14.0940 C   0  0  0  0  0
   21.0310   41.7660  -12.8890 C   0  0  0  0  0
   17.9540   39.5180  -12.3150 C   0  0  0  0  0
   18.2370   38.7740  -11.1390 O   0  0  0  0  0
   18.7400   37.4580  -11.2510 C   0  0  0  0  0
   19.2500   36.8030  -10.0730 N   0  0  0  0  0
   19.9000   35.5310  -10.2220 C   0  0  0  0  0
   18.9850   34.5320   -9.5470 C   0  0  0  0  0
   18.4490   33.4050  -10.2760 N   0  0  0  0  0
   17.6130   32.4200   -9.6760 C   0  0  0  0  0
   18.3680   31.5620   -8.6550 C   0  0  0  0  0
   17.7290   31.2270   -7.4130 N   0  0  0  0  0
   18.3160   30.4040   -6.4000 C   0  0  0  0  0
   17.2630   29.4400   -5.9960 C   0  0  0  0  0
   17.9580   28.2690   -5.6080 O   0  0  0  0  0
   18.7320   31.2340   -5.1790 C   0  0  0  0  0
   19.8020   32.2350   -5.5120 C   0  0  0  0  0
   21.0950   31.4990   -5.8970 C   0  0  0  0  0
   22.1860   32.5470   -5.5620 C   0  0  0  0  0
   21.6510   33.2660   -4.4370 N   0  0  0  0  0
   20.1560   33.0870   -4.3460 C   0  0  0  0  0
   19.4420   33.5870   -3.5030 O   0  0  0  0  0
   19.4400   31.1420   -8.9180 O   0  0  0  0  0
   16.8950   31.5040  -10.6740 C   0  0  0  0  0
   16.3280   32.2680  -11.9000 C   0  0  0  0  0
   15.1980   33.1750  -11.3900 C   0  0  0  0  0
   14.1670   33.6280  -12.4340 C   0  0  0  0  0
   14.0660   32.7680  -13.6960 C   0  0  0  0  0
   14.5230   31.3300  -13.4970 C   0  0  0  0  0
   15.9550   31.2500  -12.9970 C   0  0  0  0  0
   18.7120   34.7000   -8.4190 O   0  0  0  0  0
   21.2730   35.6210   -9.5430 C   0  0  0  0  0
   21.8840   34.2230   -9.4530 C   0  0  0  0  0
   22.0770   36.5500  -10.2960 O   0  0  0  0  0
   22.9210   37.5060   -9.7040 C   0  0  0  0  0
   23.7940   38.0920  -10.8100 C   0  0  0  0  0
   22.1200   38.6480   -9.0980 C   0  0  0  0  0
   23.8150   36.8940   -8.6200 C   0  0  0  0  0
   18.7750   36.8420  -12.2760 O   0  0  0  0  0
   19.4940   41.5918  -11.3661 H   0  0  0  0  0
   19.2193   38.8189  -14.6839 H   0  0  0  0  0
   21.2609   39.8268  -15.6915 H   0  0  0  0  0
   22.4433   41.7114  -14.5399 H   0  0  0  0  0
   21.5393   42.6025  -12.3799 H   0  0  0  0  0
   17.4180   38.8955  -13.0606 H   0  0  0  0  0
   17.2569   40.3434  -12.0602 H   0  0  0  0  0
   19.1458   37.2465   -9.1518 H   0  0  0  0  0
   20.0475   35.2361  -11.2843 H   0  0  0  0  0
   18.7306   33.3055  -11.2589 H   0  0  0  0  0
   16.8141   32.9528   -9.1048 H   0  0  0  0  0
   16.7962   31.6269   -7.2366 H   0  0  0  0  0
   19.1923   29.8490   -6.8055 H   0  0  0  0  0
   16.6002   29.1815   -6.8514 H   0  0  0  0  0
   16.6176   29.8119   -5.1725 H   0  0  0  0  0
   17.3255   27.6144   -5.3434 H   0  0  0  0  0
   19.0798   30.5603   -4.3618 H   0  0  0  0  0
   17.8405   31.7738   -4.7820 H   0  0  0  0  0
   19.4808   32.9047   -6.3434 H   0  0  0  0  0
   21.1349   31.2020   -6.9672 H   0  0  0  0  0
   21.2451   30.5903   -5.2696 H   0  0  0  0  0
   22.3545   33.2256   -6.4286 H   0  0  0  0  0
   23.1528   32.0484   -5.3266 H   0  0  0  0  0
   22.1817   33.8367   -3.7673 H   0  0  0  0  0
   16.0978   30.9174  -10.1621 H   0  0  0  0  0
   17.6408   30.7605  -11.0424 H   0  0  0  0  0
   17.1100   32.9275  -12.3430 H   0  0  0  0  0
   15.6213   34.0706  -10.8791 H   0  0  0  0  0
   14.6343   32.6188  -10.6041 H   0  0  0  0  0
   14.3971   34.6757  -12.7401 H   0  0  0  0  0
   13.1654   33.6760  -11.9452 H   0  0  0  0  0
   14.6959   33.2264  -14.4945 H   0  0  0  0  0
   13.0206   32.7864  -14.0825 H   0  0  0  0  0
   14.4174   30.7572  -14.4475 H   0  0  0  0  0
   13.8483   30.8386  -12.7575 H   0  0  0  0  0
   16.1484   30.2085  -12.6519 H   0  0  0  0  0
   16.6401   31.4022  -13.8645 H   0  0  0  0  0
   21.1272   36.0006   -8.5072 H   0  0  0  0  0
   22.8977   34.2436   -9.0006 H   0  0  0  0  0
   21.9891   33.7565  -10.4567 H   0  0  0  0  0
   21.2762   33.5340   -8.8287 H   0  0  0  0  0
   24.4932   38.8677  -10.4284 H   0  0  0  0  0
   23.1843   38.5670  -11.6101 H   0  0  0  0  0
   24.4137   37.3092  -11.3000 H   0  0  0  0  0
   22.7748   39.4504   -8.6936 H   0  0  0  0  0
   21.4749   38.3105   -8.2586 H   0  0  0  0  0
   21.4493   39.1240   -9.8469 H   0  0  0  0  0
   24.5222   37.6430   -8.2015 H   0  0  0  0  0
   24.4341   36.0614   -9.0191 H   0  0  0  0  0
   23.2362   36.4942   -7.7602 H   0  0  0  0  0
  1  2  2  0  0  0
  1  6  1  0  0  0
  1 44  1  0  0  0
  2  3  1  0  0  0
  2  7  1  0  0  0
  3  4  2  0  0  0
  3 45  1  0  0  0
  4  5  1  0  0  0
  4 46  1  0  0  0
  5  6  2  0  0  0
  5 47  1  0  0  0
  6 48  1  0  0  0
  7  8  1  0  0  0
  7 49  1  0  0  0
  7 50  1  0  0  0
  8  9  1  0  0  0
  9 10  1  0  0  0
  9 43  2  0  0  0
 10 11  1  0  0  0
 10 51  1  0  0  0
 11 12  1  0  0  0
 11 36  1  0  0  0
 11 52  1  0  0  0
 12 13  1  0  0  0
 12 35  2  0  0  0
 13 14  1  0  0  0
 13 53  1  0  0  0
 14 15  1  0  0  0
 14 28  1  0  0  0
 14 54  1  0  0  0
 15 16  1  0  0  0
 15 27  2  0  0  0
 16 17  1  0  0  0
 16 55  1  0  0  0
 17 18  1  0  0  0
 17 20  1  0  0  0
 17 56  1  0  0  0
 18 19  1  0  0  0
 18 57  1  0  0  0
 18 58  1  0  0  0
 19 59  1  0  0  0
 20 21  1  0  0  0
 20 60  1  0  0  0
 20 61  1  0  0  0
 21 22  1  0  0  0
 21 25  1  0  0  0
 21 62  1  0  0  0
 22 23  1  0  0  0
 22 63  1  0  0  0
 22 64  1  0  0  0
 23 24  1  0  0  0
 23 65  1  0  0  0
 23 66  1  0  0  0
 24 25  1  0  0  0
 24 67  1  0  0  0
 25 26  2  0  0  0
 28 29  1  0  0  0
 28 68  1  0  0  0
 28 69  1  0  0  0
 29 30  1  0  0  0
 29 34  1  0  0  0
 29 70  1  0  0  0
 30 31  1  0  0  0
 30 71  1  0  0  0
 30 72  1  0  0  0
 31 32  1  0  0  0
 31 73  1  0  0  0
 31 74  1  0  0  0
 32 33  1  0  0  0
 32 75  1  0  0  0
 32 76  1  0  0  0
 33 34  1  0  0  0
 33 77  1  0  0  0
 33 78  1  0  0  0
 34 79  1  0  0  0
 34 80  1  0  0  0
 36 37  1  0  0  0
 36 38  1  0  0  0
 36 81  1  0  0  0
 37 82  1  0  0  0
 37 83  1  0  0  0
 37 84  1  0  0  0
 38 39  1  0  0  0
 39 40  1  0  0  0
 39 41  1  0  0  0
 39 42  1  0  0  0
 40 85  1  0  0  0
 40 86  1  0  0  0
 40 87  1  0  0  0
 41 88  1  0  0  0
 41 89  1  0  0  0
 41 90  1  0  0  0
 42 91  1  0  0  0
 42 92  1  0  0  0
 42 93  1  0  0  0
M  END
$$$$
