NOL_2_A_401
  -ISIS-            3D

 93 95  0  0  0  0  0  0  0  0  1 V2000
   25.7360   37.8130   42.2840 C   0  0  0  0  0
   25.1450   36.7190   42.9110 C   0  0  0  0  0
   24.4770   36.9090   44.1310 C   0  0  0  0  0
   24.3920   38.1850   44.6980 C   0  0  0  0  0
   24.9750   39.2860   44.0570 C   0  0  0  0  0
   25.6550   39.0960   42.8520 C   0  0  0  0  0
   25.2470   35.3080   42.2780 C   0  0  0  0  0
   24.4610   35.1810   41.1020 O   0  0  0  0  0
   23.0700   34.9580   41.2140 C   0  0  0  0  0
   22.2470   35.0720   40.0360 N   0  0  0  0  0
   20.8210   34.9990   40.1850 C   0  0  0  0  0
   20.4130   33.7070   39.5100 C   0  0  0  0  0
   19.7050   32.6800   40.2390 N   0  0  0  0  0
   19.2700   31.4630   39.6390 C   0  0  0  0  0
   18.1490   31.6880   38.6180 C   0  0  0  0  0
   18.1790   30.9670   37.3760 N   0  0  0  0  0
   17.1730   31.0640   36.3630 C   0  0  0  0  0
   16.8640   29.6700   35.9590 C   0  0  0  0  0
   15.5030   29.6870   35.5710 O   0  0  0  0  0
   17.6830   31.8390   35.1420 C   0  0  0  0  0
   18.0150   33.2670   35.4750 C   0  0  0  0  0
   16.7310   34.0180   35.8600 C   0  0  0  0  0
   17.0940   35.4870   35.5250 C   0  0  0  0  0
   17.9840   35.3830   34.4000 N   0  0  0  0  0
   18.5760   33.9990   34.3090 C   0  0  0  0  0
   19.3660   33.6310   33.4660 O   0  0  0  0  0
   17.2500   32.4070   38.8810 O   0  0  0  0  0
   18.8360   30.3830   40.6370 C   0  0  0  0  0
   19.7810   30.2740   41.8630 C   0  0  0  0  0
   21.1310   29.7490   41.3530 C   0  0  0  0  0
   22.0390   29.0830   42.3970 C   0  0  0  0  0
   21.3450   28.5660   43.6590 C   0  0  0  0  0
   19.8710   28.2420   43.4600 C   0  0  0  0  0
   19.0860   29.4420   42.9600 C   0  0  0  0  0
   20.6950   33.5550   38.3820 O   0  0  0  0  0
   20.2120   36.2330   39.5060 C   0  0  0  0  0
   18.6960   36.0640   39.4160 C   0  0  0  0  0
   20.6150   37.3940   40.2590 O   0  0  0  0  0
   21.0210   38.6030   39.6670 C   0  0  0  0  0
   21.0920   39.6520   40.7730 C   0  0  0  0  0
   22.4100   38.4800   39.0610 C   0  0  0  0  0
   20.0440   39.0710   38.5830 C   0  0  0  0  0
   22.5190   34.6810   42.2390 O   0  0  0  0  0
   26.2719   37.6780   41.3290 H   0  0  0  0  0
   24.0094   36.0535   44.6471 H   0  0  0  0  0
   23.8598   38.3257   45.6543 H   0  0  0  0  0
   24.9015   40.2924   44.5028 H   0  0  0  0  0
   26.1256   39.9543   42.3429 H   0  0  0  0  0
   24.9761   34.5324   43.0235 H   0  0  0  0  0
   26.3104   35.1174   42.0232 H   0  0  0  0  0
   22.6830   35.2033   39.1147 H   0  0  0  0  0
   20.4918   34.9793   41.2473 H   0  0  0  0  0
   19.4778   32.8743   41.2218 H   0  0  0  0  0
   20.1308   31.0377   39.0677 H   0  0  0  0  0
   18.9918   30.3591   37.1998 H   0  0  0  0  0
   16.2543   31.5454   36.7687 H   0  0  0  0  0
   16.9712   28.9667   36.8144 H   0  0  0  0  0
   17.5088   29.2968   35.1356 H   0  0  0  0  0
   15.2517   28.8121   35.3066 H   0  0  0  0  0
   16.9253   31.8034   34.3251 H   0  0  0  0  0
   18.5962   31.3370   34.7447 H   0  0  0  0  0
   18.7555   33.3237   36.3065 H   0  0  0  0  0
   16.4536   33.9041   36.9302 H   0  0  0  0  0
   15.8692   33.6940   35.2322 H   0  0  0  0  0
   17.5977   35.9718   36.3917 H   0  0  0  0  0
   16.1790   36.0754   35.2898 H   0  0  0  0  0
   18.2131   36.1279   33.7303 H   0  0  0  0  0
   18.7268   29.3993   40.1250 H   0  0  0  0  0
   17.8191   30.6569   41.0054 H   0  0  0  0  0
   19.9611   31.2810   42.3059 H   0  0  0  0  0
   21.6948   30.5632   40.8418 H   0  0  0  0  0
   20.9311   28.9825   40.5674 H   0  0  0  0  0
   22.8313   29.8062   42.7028 H   0  0  0  0  0
   22.5812   28.2394   41.9083 H   0  0  0  0  0
   21.4266   29.3411   44.4572 H   0  0  0  0  0
   21.8840   27.6702   44.0460 H   0  0  0  0  0
   19.4278   27.8642   44.4106 H   0  0  0  0  0
   19.7831   27.4119   42.7205 H   0  0  0  0  0
   18.0873   29.0888   42.6150 H   0  0  0  0  0
   18.8752   30.1114   43.8275 H   0  0  0  0  0
   20.6136   36.2964   38.4702 H   0  0  0  0  0
   18.2079   36.9506   38.9596 H   0  0  0  0  0
   18.2390   35.9263   40.4201 H   0  0  0  0  0
   18.4026   35.1907   38.7953 H   0  0  0  0  0
   21.4181   40.6444   40.3921 H   0  0  0  0  0
   21.8053   39.3595   41.5750 H   0  0  0  0  0
   20.1034   39.8002   41.2604 H   0  0  0  0  0
   22.7798   39.4492   38.6610 H   0  0  0  0  0
   22.4389   37.7562   38.2183 H   0  0  0  0  0
   23.1565   38.1322   39.8086 H   0  0  0  0  0
   20.3395   40.0576   38.1639 H   0  0  0  0  0
   19.0136   39.1916   38.9823 H   0  0  0  0  0
   19.9866   38.3694   37.7236 H   0  0  0  0  0
  1  2  2  0  0  0
  1  6  1  0  0  0
  1 44  1  0  0  0
  2  3  1  0  0  0
  2  7  1  0  0  0
  3  4  2  0  0  0
  3 45  1  0  0  0
  4  5  1  0  0  0
  4 46  1  0  0  0
  5  6  2  0  0  0
  5 47  1  0  0  0
  6 48  1  0  0  0
  7  8  1  0  0  0
  7 49  1  0  0  0
  7 50  1  0  0  0
  8  9  1  0  0  0
  9 10  1  0  0  0
  9 43  2  0  0  0
 10 11  1  0  0  0
 10 51  1  0  0  0
 11 12  1  0  0  0
 11 36  1  0  0  0
 11 52  1  0  0  0
 12 13  1  0  0  0
 12 35  2  0  0  0
 13 14  1  0  0  0
 13 53  1  0  0  0
 14 15  1  0  0  0
 14 28  1  0  0  0
 14 54  1  0  0  0
 15 16  1  0  0  0
 15 27  2  0  0  0
 16 17  1  0  0  0
 16 55  1  0  0  0
 17 18  1  0  0  0
 17 20  1  0  0  0
 17 56  1  0  0  0
 18 19  1  0  0  0
 18 57  1  0  0  0
 18 58  1  0  0  0
 19 59  1  0  0  0
 20 21  1  0  0  0
 20 60  1  0  0  0
 20 61  1  0  0  0
 21 22  1  0  0  0
 21 25  1  0  0  0
 21 62  1  0  0  0
 22 23  1  0  0  0
 22 63  1  0  0  0
 22 64  1  0  0  0
 23 24  1  0  0  0
 23 65  1  0  0  0
 23 66  1  0  0  0
 24 25  1  0  0  0
 24 67  1  0  0  0
 25 26  2  0  0  0
 28 29  1  0  0  0
 28 68  1  0  0  0
 28 69  1  0  0  0
 29 30  1  0  0  0
 29 34  1  0  0  0
 29 70  1  0  0  0
 30 31  1  0  0  0
 30 71  1  0  0  0
 30 72  1  0  0  0
 31 32  1  0  0  0
 31 73  1  0  0  0
 31 74  1  0  0  0
 32 33  1  0  0  0
 32 75  1  0  0  0
 32 76  1  0  0  0
 33 34  1  0  0  0
 33 77  1  0  0  0
 33 78  1  0  0  0
 34 79  1  0  0  0
 34 80  1  0  0  0
 36 37  1  0  0  0
 36 38  1  0  0  0
 36 81  1  0  0  0
 37 82  1  0  0  0
 37 83  1  0  0  0
 37 84  1  0  0  0
 38 39  1  0  0  0
 39 40  1  0  0  0
 39 41  1  0  0  0
 39 42  1  0  0  0
 40 85  1  0  0  0
 40 86  1  0  0  0
 40 87  1  0  0  0
 41 88  1  0  0  0
 41 89  1  0  0  0
 41 90  1  0  0  0
 42 91  1  0  0  0
 42 92  1  0  0  0
 42 93  1  0  0  0
M  END
$$$$
