@<TRIPOS>MOLECULE
DMS_2_A_403
 10 9 0 0 0
SMALL
NO_CHARGES

@<TRIPOS>ATOM
      1 S          -2.4730  -18.7470   -8.0350 S.o    403  DMS403      0.0000
      2 O          -3.7240  -18.8560   -8.9200 O.2    403  DMS403      0.0000
      3 C1         -1.1860  -18.1020   -9.0850 C.3    403  DMS403      0.0000
      4 C2         -1.8500  -20.4060   -7.9610 C.3    403  DMS403      0.0000
      5 H          -0.2084  -18.1638   -8.5647 H      403  DMS403      0.0000
      6 H          -1.4019  -17.0385   -9.3146 H      403  DMS403      0.0000
      7 H          -1.1373  -18.6726  -10.0350 H      403  DMS403      0.0000
      8 H          -0.8518  -20.4133   -7.4775 H      403  DMS403      0.0000
      9 H          -1.7706  -20.8384   -8.9795 H      403  DMS403      0.0000
     10 H          -2.5417  -21.0297   -7.3587 H      403  DMS403      0.0000
@<TRIPOS>BOND
     1     1     2    2
     2     1     3    1
     3     1     4    1
     4     3     5    1
     5     3     6    1
     6     3     7    1
     7     4     8    1
     8     4     9    1
     9     4    10    1

