@<TRIPOS>MOLECULE
EDO_1_A_302
 10 9 0 0 0
SMALL
NO_CHARGES

@<TRIPOS>ATOM
      1 C1         -4.7140   13.9390    0.9790 C.3    302  EDO302      0.0000
      2 O1         -4.4950   15.2520    1.4620 O.3    302  EDO302      0.0000
      3 C2         -4.0700   13.7080   -0.3290 C.3    302  EDO302      0.0000
      4 O2         -3.8620   14.8870   -1.0770 O.3    302  EDO302      0.0000
      5 H          -5.8112   13.7923    0.8902 H      302  EDO302      0.0000
      6 H          -4.3619   13.2057    1.7340 H      302  EDO302      0.0000
      7 H          -3.8430   15.6621    0.9055 H      302  EDO302      0.0000
      8 H          -4.6456   12.9743   -0.9321 H      302  EDO302      0.0000
      9 H          -3.0732   13.2453   -0.1653 H      302  EDO302      0.0000
     10 H          -4.7036   15.1924   -1.3908 H      302  EDO302      0.0000
@<TRIPOS>BOND
     1     1     2    1
     2     1     3    1
     3     1     5    1
     4     1     6    1
     5     2     7    1
     6     3     4    1
     7     3     8    1
     8     3     9    1
     9     4    10    1

