@<TRIPOS>MOLECULE
EDO_1_A_301
 10 9 0 0 0
SMALL
NO_CHARGES

@<TRIPOS>ATOM
      1 C1        -10.8500   25.7790   11.8680 C.3    301  EDO301      0.0000
      2 O1        -10.4250   26.9390   12.5540 O.3    301  EDO301      0.0000
      3 C2        -12.1640   25.2590   12.3010 C.3    301  EDO301      0.0000
      4 O2        -12.5770   24.1100   11.5650 O.3    301  EDO301      0.0000
      5 H         -10.0744   24.9901   11.9727 H      301  EDO301      0.0000
      6 H         -10.8910   26.0222   10.7852 H      301  EDO301      0.0000
      7 H         -10.0992   26.6844   13.4072 H      301  EDO301      0.0000
      8 H         -12.9339   26.0527   12.1897 H      301  EDO301      0.0000
      9 H         -12.1296   24.9985   13.3806 H      301  EDO301      0.0000
     10 H         -13.4486   23.8679   11.8497 H      301  EDO301      0.0000
@<TRIPOS>BOND
     1     1     2    1
     2     1     3    1
     3     1     5    1
     4     1     6    1
     5     2     7    1
     6     3     4    1
     7     3     8    1
     8     3     9    1
     9     4    10    1

