0LO_1_A_201
  -ISIS-            3D

 23 24  0  0  0  0  0  0  0  0  1 V2000
  -47.8700  -28.9340    6.3200 C   0  0  0  0  0
  -48.7490  -28.9660    7.3980 C   0  0  0  0  0
  -49.9940  -29.5690    7.2770 C   0  0  0  0  0
  -50.3860  -30.1270    6.0870 C   0  0  0  0  0
  -49.5310  -30.0630    5.0100 C   0  0  0  0  0
  -48.2690  -29.4400    5.1130 C   0  0  0  0  0
  -47.3100  -29.4260    3.8950 C   0  0  0  0  0
  -45.9520  -29.6860    4.0480 C   0  0  0  0  0
  -47.7940  -29.1380    2.6180 C   0  0  0  0  0
  -47.0030  -29.1180    1.5640 N   0  0  0  0  0
  -45.7070  -29.3810    1.6910 C   0  0  0  0  0
  -45.1450  -29.6640    2.9130 C   0  0  0  0  0
  -43.6680  -30.0150    3.0210 C   0  0  0  0  0
  -43.2490  -30.6660    4.0160 O   0  0  0  0  0
  -42.8660  -29.7120    2.1210 O   0  0  0  0  0
  -46.8736  -28.4789    6.4447 H   0  0  0  0  0
  -48.4479  -28.5219    8.3624 H   0  0  0  0  0
  -50.6722  -29.6003    8.1471 H   0  0  0  0  0
  -51.3705  -30.6158    5.9937 H   0  0  0  0  0
  -49.8431  -30.5148    4.0531 H   0  0  0  0  0
  -45.5313  -29.9191    5.0389 H   0  0  0  0  0
  -48.8614  -28.9113    2.4634 H   0  0  0  0  0
  -45.0923  -29.3665    0.7757 H   0  0  0  0  0
  1  2  2  0  0  0
  1  6  1  0  0  0
  1 16  1  0  0  0
  2  3  1  0  0  0
  2 17  1  0  0  0
  3  4  2  0  0  0
  3 18  1  0  0  0
  4  5  1  0  0  0
  4 19  1  0  0  0
  5  6  2  0  0  0
  5 20  1  0  0  0
  6  7  1  0  0  0
  7  8  2  0  0  0
  7  9  1  0  0  0
  8 12  1  0  0  0
  8 21  1  0  0  0
  9 10  2  0  0  0
  9 22  1  0  0  0
 10 11  1  0  0  0
 11 12  2  0  0  0
 11 23  1  0  0  0
 12 13  1  0  0  0
 13 14  2  0  0  0
 13 15  2  0  0  0
M  END
$$$$
