@<TRIPOS>MOLECULE
0LO_1_A_201
 23 24 0 0 0
SMALL
NO_CHARGES

@<TRIPOS>ATOM
      1 CAF       -47.8700  -28.9340    6.3200 C.ar   201  0LO201      0.0000
      2 CAD       -48.7490  -28.9660    7.3980 C.ar   201  0LO201      0.0000
      3 CAC       -49.9940  -29.5690    7.2770 C.ar   201  0LO201      0.0000
      4 CAE       -50.3860  -30.1270    6.0870 C.ar   201  0LO201      0.0000
      5 CAG       -49.5310  -30.0630    5.0100 C.ar   201  0LO201      0.0000
      6 CAN       -48.2690  -29.4400    5.1130 C.ar   201  0LO201      0.0000
      7 CAO       -47.3100  -29.4260    3.8950 C.ar   201  0LO201      0.0000
      8 CAJ       -45.9520  -29.6860    4.0480 C.ar   201  0LO201      0.0000
      9 CAI       -47.7940  -29.1380    2.6180 C.ar   201  0LO201      0.0000
     10 NAK       -47.0030  -29.1180    1.5640 N.ar   201  0LO201      0.0000
     11 CAH       -45.7070  -29.3810    1.6910 C.ar   201  0LO201      0.0000
     12 CAM       -45.1450  -29.6640    2.9130 C.ar   201  0LO201      0.0000
     13 CAL       -43.6680  -30.0150    3.0210 C.2    201  0LO201      0.0000
     14 OAB       -43.2490  -30.6660    4.0160 O.co2  201  0LO201     -0.5000
     15 OAA       -42.8660  -29.7120    2.1210 O.co2  201  0LO201     -0.5000
     16 H         -46.8736  -28.4789    6.4447 H      201  0LO201      0.0000
     17 H         -48.4479  -28.5219    8.3624 H      201  0LO201      0.0000
     18 H         -50.6722  -29.6003    8.1471 H      201  0LO201      0.0000
     19 H         -51.3705  -30.6158    5.9937 H      201  0LO201      0.0000
     20 H         -49.8431  -30.5148    4.0531 H      201  0LO201      0.0000
     21 H         -45.5313  -29.9191    5.0389 H      201  0LO201      0.0000
     22 H         -48.8614  -28.9113    2.4634 H      201  0LO201      0.0000
     23 H         -45.0923  -29.3665    0.7757 H      201  0LO201      0.0000
@<TRIPOS>BOND
     1     1     2   ar
     2     1     6   ar
     3     1    16    1
     4     2     3   ar
     5     2    17    1
     6     3     4   ar
     7     3    18    1
     8     4     5   ar
     9     4    19    1
    10     5     6   ar
    11     5    20    1
    12     6     7    1
    13     7     8   ar
    14     7     9   ar
    15     8    12   ar
    16     8    21    1
    17     9    10   ar
    18     9    22    1
    19    10    11   ar
    20    11    12   ar
    21    11    23    1
    22    12    13    1
    23    13    14   ar
    24    13    15   ar

