DMS_2_A_401
  -ISIS-            3D

 10  9  0  0  0  0  0  0  0  0  1 V2000
   -6.9450  -28.0730  -21.6430 S   0  0  0  0  0
   -7.7060  -27.0890  -22.4880 O   0  0  0  0  0
   -5.6660  -28.7070  -22.6860 C   0  0  0  0  0
   -5.9690  -27.1470  -20.5190 C   0  0  0  0  0
   -4.9844  -29.3526  -22.0953 H   0  0  0  0  0
   -5.0870  -27.8751  -23.1369 H   0  0  0  0  0
   -6.1192  -29.3131  -23.4970 H   0  0  0  0  0
   -5.2866  -27.8238  -19.9654 H   0  0  0  0  0
   -6.6310  -26.6346  -19.7913 H   0  0  0  0  0
   -5.3717  -26.3852  -21.0607 H   0  0  0  0  0
  1  2  2  0  0  0
  1  3  1  0  0  0
  1  4  1  0  0  0
  3  5  1  0  0  0
  3  6  1  0  0  0
  3  7  1  0  0  0
  4  8  1  0  0  0
  4  9  1  0  0  0
  4 10  1  0  0  0
M  END
$$$$
