@<TRIPOS>MOLECULE
DMS_2_A_401
 10 9 0 0 0
SMALL
NO_CHARGES

@<TRIPOS>ATOM
      1 S          -6.9450  -28.0730  -21.6430 S.o    401  DMS401      0.0000
      2 O          -7.7060  -27.0890  -22.4880 O.2    401  DMS401      0.0000
      3 C1         -5.6660  -28.7070  -22.6860 C.3    401  DMS401      0.0000
      4 C2         -5.9690  -27.1470  -20.5190 C.3    401  DMS401      0.0000
      5 H          -4.9844  -29.3526  -22.0953 H      401  DMS401      0.0000
      6 H          -5.0870  -27.8751  -23.1369 H      401  DMS401      0.0000
      7 H          -6.1192  -29.3131  -23.4970 H      401  DMS401      0.0000
      8 H          -5.2866  -27.8238  -19.9654 H      401  DMS401      0.0000
      9 H          -6.6310  -26.6346  -19.7913 H      401  DMS401      0.0000
     10 H          -5.3717  -26.3852  -21.0607 H      401  DMS401      0.0000
@<TRIPOS>BOND
     1     1     2    2
     2     1     3    1
     3     1     4    1
     4     3     5    1
     5     3     6    1
     6     3     7    1
     7     4     8    1
     8     4     9    1
     9     4    10    1

