ALD_1_B_702
  -ISIS-            3D

 77 77  0  0  0  0  0  0  0  0  1 V2000
  -20.1120   -9.1800   -3.8090 C   0  0  0  0  0
  -20.4980   -9.8110   -2.8400 O   0  0  0  0  0
  -20.5460   -7.8070   -4.0090 O   0  0  0  0  0
  -21.6330   -7.2470   -3.2760 C   0  0  0  0  0
  -22.9710   -7.5970   -3.8930 C   0  0  0  0  0
  -23.4920   -8.8800   -3.7660 C   0  0  0  0  0
  -24.7280   -9.1870   -4.3300 C   0  0  0  0  0
  -25.4410   -8.2130   -5.0210 C   0  0  0  0  0
  -24.9200   -6.9300   -5.1480 C   0  0  0  0  0
  -23.6860   -6.6250   -4.5840 C   0  0  0  0  0
  -19.2790   -9.6430   -4.7300 N   0  0  0  0  0
  -18.7450  -10.9910   -4.7620 C   0  0  0  0  0
  -17.4050  -11.0130   -4.1180 C   0  0  0  0  0
  -16.5000  -10.3420   -4.5670 O   0  0  0  0  0
  -18.6440  -11.3570   -6.2410 C   0  0  0  0  0
  -18.1640  -12.7740   -6.5220 C   0  0  0  0  0
  -19.2580  -13.7970   -6.2810 C   0  0  0  0  0
  -17.6580  -12.8410   -7.9640 C   0  0  0  0  0
  -17.2750  -11.7970   -3.0530 N   0  0  0  0  0
  -15.9610  -12.0450   -2.4430 C   0  0  0  0  0
  -15.1000  -12.9230   -3.3150 C   0  0  0  0  0
  -15.4910  -13.9710   -3.7990 O   0  0  0  0  0
  -16.1590  -12.5720   -1.0290 C   0  0  0  0  0
  -17.0140  -11.6250   -0.1840 C   0  0  0  0  0
  -16.3730  -10.2550    0.0240 C   0  0  0  0  0
  -17.3520  -12.2540    1.1710 C   0  0  0  0  0
  -13.8740  -12.4540   -3.5290 N   0  0  0  0  0
  -12.9330  -13.0730   -4.4540 C   0  0  0  0  0
  -11.7350  -13.5360   -3.6200 C   0  0  0  0  0
  -12.5110  -12.0720   -5.5200 C   0  0  0  0  0
  -13.5090  -11.8430   -6.6540 C   0  0  0  0  0
  -13.8660  -13.1420   -7.3640 C   0  0  0  0  0
  -12.9500  -10.8220   -7.6480 C   0  0  0  0  0
  -10.8410  -14.3320   -4.4050 O   0  0  0  0  0
  -21.5122   -6.1449   -3.2386 H   0  0  0  0  0
  -21.6149   -7.5821   -2.2183 H   0  0  0  0  0
  -22.9409   -9.6617   -3.2191 H   0  0  0  0  0
  -25.1415  -10.2049   -4.2281 H   0  0  0  0  0
  -26.4196   -8.4584   -5.4678 H   0  0  0  0  0
  -25.4847   -6.1563   -5.6957 H   0  0  0  0  0
  -23.2828   -5.6036   -4.6926 H   0  0  0  0  0
  -18.9799   -8.9825   -5.4587 H   0  0  0  0  0
  -19.4445  -11.7010   -4.2641 H   0  0  0  0  0
  -17.9527  -10.6366   -6.7383 H   0  0  0  0  0
  -19.6361  -11.2067   -6.7283 H   0  0  0  0  0
  -17.3022  -13.0094   -5.8523 H   0  0  0  0  0
  -18.9050  -14.8302   -6.4974 H   0  0  0  0  0
  -20.1495  -13.6162   -6.9221 H   0  0  0  0  0
  -19.6060  -13.7958   -5.2245 H   0  0  0  0  0
  -17.2658  -13.8527   -8.2123 H   0  0  0  0  0
  -16.8295  -12.1215   -8.1488 H   0  0  0  0  0
  -18.4628  -12.6126   -8.6981 H   0  0  0  0  0
  -18.1016  -12.2829   -2.6813 H   0  0  0  0  0
  -15.4361  -11.0654   -2.3452 H   0  0  0  0  0
  -15.1675  -12.7232   -0.5430 H   0  0  0  0  0
  -16.6439  -13.5746   -1.0777 H   0  0  0  0  0
  -17.9908  -11.4589   -0.6993 H   0  0  0  0  0
  -16.9796   -9.6195    0.7075 H   0  0  0  0  0
  -16.2748   -9.6821   -0.9237 H   0  0  0  0  0
  -15.3571  -10.3366    0.4710 H   0  0  0  0  0
  -18.0206  -11.6007    1.7753 H   0  0  0  0  0
  -16.4382  -12.4423    1.7779 H   0  0  0  0  0
  -17.8758  -13.2290    1.0529 H   0  0  0  0  0
  -13.5702  -11.5946   -3.0505 H   0  0  0  0  0
  -13.3695  -13.9762   -4.9335 H   0  0  0  0  0
  -12.0766  -14.1305   -2.7441 H   0  0  0  0  0
  -11.1780  -12.6638   -3.2166 H   0  0  0  0  0
  -11.5586  -12.4262   -5.9789 H   0  0  0  0  0
  -12.2641  -11.0985   -5.0363 H   0  0  0  0  0
  -14.4461  -11.4179   -6.2180 H   0  0  0  0  0
  -14.4690  -12.9524   -8.2794 H   0  0  0  0  0
  -14.4751  -13.8227   -6.7304 H   0  0  0  0  0
  -12.9610  -13.7034   -7.6870 H   0  0  0  0  0
  -13.6805  -10.5947   -8.4566 H   0  0  0  0  0
  -12.0190  -11.1849   -8.1382 H   0  0  0  0  0
  -12.7079   -9.8549   -7.1529 H   0  0  0  0  0
  -11.2100  -15.2008   -4.4955 H   0  0  0  0  0
  1  2  2  0  0  0
  1  3  1  0  0  0
  1 11  1  0  0  0
  3  4  1  0  0  0
  4  5  1  0  0  0
  4 35  1  0  0  0
  4 36  1  0  0  0
  5  6  2  0  0  0
  5 10  1  0  0  0
  6  7  1  0  0  0
  6 37  1  0  0  0
  7  8  2  0  0  0
  7 38  1  0  0  0
  8  9  1  0  0  0
  8 39  1  0  0  0
  9 10  2  0  0  0
  9 40  1  0  0  0
 10 41  1  0  0  0
 11 12  1  0  0  0
 11 42  1  0  0  0
 12 13  1  0  0  0
 12 15  1  0  0  0
 12 43  1  0  0  0
 13 14  2  0  0  0
 13 19  1  0  0  0
 15 16  1  0  0  0
 15 44  1  0  0  0
 15 45  1  0  0  0
 16 17  1  0  0  0
 16 18  1  0  0  0
 16 46  1  0  0  0
 17 47  1  0  0  0
 17 48  1  0  0  0
 17 49  1  0  0  0
 18 50  1  0  0  0
 18 51  1  0  0  0
 18 52  1  0  0  0
 19 20  1  0  0  0
 19 53  1  0  0  0
 20 21  1  0  0  0
 20 23  1  0  0  0
 20 54  1  0  0  0
 21 22  2  0  0  0
 21 27  1  0  0  0
 23 24  1  0  0  0
 23 55  1  0  0  0
 23 56  1  0  0  0
 24 25  1  0  0  0
 24 26  1  0  0  0
 24 57  1  0  0  0
 25 58  1  0  0  0
 25 59  1  0  0  0
 25 60  1  0  0  0
 26 61  1  0  0  0
 26 62  1  0  0  0
 26 63  1  0  0  0
 27 28  1  0  0  0
 27 64  1  0  0  0
 28 29  1  0  0  0
 28 30  1  0  0  0
 28 65  1  0  0  0
 29 34  1  0  0  0
 29 66  1  0  0  0
 29 67  1  0  0  0
 30 31  1  0  0  0
 30 68  1  0  0  0
 30 69  1  0  0  0
 31 32  1  0  0  0
 31 33  1  0  0  0
 31 70  1  0  0  0
 32 71  1  0  0  0
 32 72  1  0  0  0
 32 73  1  0  0  0
 33 74  1  0  0  0
 33 75  1  0  0  0
 33 76  1  0  0  0
 34 77  1  0  0  0
M  END
$$$$
