ALD_1_A_401
  -ISIS-            3D

 77 77  0  0  0  0  0  0  0  0  1 V2000
   20.2170    6.8130  -33.9100 C   0  0  0  0  0
   21.3730    7.0770  -34.1900 O   0  0  0  0  0
   19.2900    6.4010  -34.9430 O   0  0  0  0  0
   19.7170    6.4560  -36.2990 C   0  0  0  0  0
   19.5040    7.8240  -36.9140 C   0  0  0  0  0
   20.5740    8.6960  -37.0850 C   0  0  0  0  0
   20.3760    9.9440  -37.6720 C   0  0  0  0  0
   19.1070   10.3200  -38.0940 C   0  0  0  0  0
   18.0380    9.4430  -37.9330 C   0  0  0  0  0
   18.2380    8.1990  -37.3460 C   0  0  0  0  0
   19.7150    6.8780  -32.6880 N   0  0  0  0  0
   20.5230    7.1650  -31.5110 C   0  0  0  0  0
   20.7010    5.9150  -30.7260 C   0  0  0  0  0
   19.7340    5.2900  -30.3280 O   0  0  0  0  0
   19.7680    8.2210  -30.7320 C   0  0  0  0  0
   20.5260    8.7480  -29.5210 C   0  0  0  0  0
   21.7850    9.5040  -29.8900 C   0  0  0  0  0
   19.5450    9.6200  -28.7320 C   0  0  0  0  0
   21.9530    5.5340  -30.5100 N   0  0  0  0  0
   22.2560    4.3830  -29.6640 C   0  0  0  0  0
   22.0600    4.7390  -28.2170 C   0  0  0  0  0
   22.6570    5.6860  -27.7360 O   0  0  0  0  0
   23.6790    3.9110  -29.9290 C   0  0  0  0  0
   23.8920    3.4760  -31.3790 C   0  0  0  0  0
   23.0890    2.2100  -31.6750 C   0  0  0  0  0
   25.3650    3.2620  -31.7070 C   0  0  0  0  0
   21.2130    3.9880  -27.5120 N   0  0  0  0  0
   20.9060    4.2410  -26.1110 C   0  0  0  0  0
   21.5890    3.1160  -25.3130 C   0  0  0  0  0
   19.4140    4.2240  -25.8100 C   0  0  0  0  0
   18.6280    5.4000  -26.3840 C   0  0  0  0  0
   19.1130    6.7470  -25.8680 C   0  0  0  0  0
   17.1350    5.2280  -26.0840 C   0  0  0  0  0
   21.4170    3.2910  -23.9070 O   0  0  0  0  0
   19.1391    5.7117  -36.8859 H   0  0  0  0  0
   20.7761    6.1441  -36.4047 H   0  0  0  0  0
   21.5865    8.4080  -36.7548 H   0  0  0  0  0
   21.2277   10.6336  -37.8006 H   0  0  0  0  0
   18.9474   11.3087  -38.5569 H   0  0  0  0  0
   17.0297    9.7370  -38.2713 H   0  0  0  0  0
   17.3825    7.5127  -37.2243 H   0  0  0  0  0
   18.7166    6.6675  -32.5621 H   0  0  0  0  0
   21.5099    7.5816  -31.8141 H   0  0  0  0  0
   18.7871    7.8027  -30.4052 H   0  0  0  0  0
   19.5296    9.0750  -31.4091 H   0  0  0  0  0
   20.8114    7.8868  -28.8687 H   0  0  0  0  0
   22.2694    9.9480  -28.9916 H   0  0  0  0  0
   21.5782   10.3404  -30.5943 H   0  0  0  0  0
   22.5492    8.8511  -30.3652 H   0  0  0  0  0
   20.0106   10.0128  -27.8003 H   0  0  0  0  0
   18.6381    9.0548  -28.4206 H   0  0  0  0  0
   19.2018   10.5001  -29.3207 H   0  0  0  0  0
   22.7290    6.0804  -30.9059 H   0  0  0  0  0
   21.5647    3.5450  -29.9120 H   0  0  0  0  0
   23.9294    3.0689  -29.2430 H   0  0  0  0  0
   24.3895    4.7340  -29.6822 H   0  0  0  0  0
   23.5245    4.2809  -32.0607 H   0  0  0  0  0
   23.2903    1.8344  -32.7033 H   0  0  0  0  0
   21.9911    2.3738  -31.6186 H   0  0  0  0  0
   23.3399    1.3825  -30.9744 H   0  0  0  0  0
   25.5142    2.9739  -32.7718 H   0  0  0  0  0
   25.8151    2.4589  -31.0816 H   0  0  0  0  0
   25.9623    4.1857  -31.5364 H   0  0  0  0  0
   20.7309    3.2065  -27.9772 H   0  0  0  0  0
   21.3390    5.2063  -25.7648 H   0  0  0  0  0
   22.6772    3.1029  -25.5440 H   0  0  0  0  0
   21.1817    2.1252  -25.6107 H   0  0  0  0  0
   19.2608    4.2159  -24.7061 H   0  0  0  0  0
   18.9781    3.2694  -26.1866 H   0  0  0  0  0
   18.7518    5.3932  -27.4951 H   0  0  0  0  0
   18.4705    7.5791  -26.2329 H   0  0  0  0  0
   20.1461    6.9828  -26.2046 H   0  0  0  0  0
   19.1056    6.7942  -24.7562 H   0  0  0  0  0
   16.5281    6.0421  -26.5401 H   0  0  0  0  0
   16.9271    5.2357  -24.9906 H   0  0  0  0  0
   16.7408    4.2689  -26.4887 H   0  0  0  0  0
   21.9316    2.6342  -23.4571 H   0  0  0  0  0
  1  2  2  0  0  0
  1  3  1  0  0  0
  1 11  1  0  0  0
  3  4  1  0  0  0
  4  5  1  0  0  0
  4 35  1  0  0  0
  4 36  1  0  0  0
  5  6  2  0  0  0
  5 10  1  0  0  0
  6  7  1  0  0  0
  6 37  1  0  0  0
  7  8  2  0  0  0
  7 38  1  0  0  0
  8  9  1  0  0  0
  8 39  1  0  0  0
  9 10  2  0  0  0
  9 40  1  0  0  0
 10 41  1  0  0  0
 11 12  1  0  0  0
 11 42  1  0  0  0
 12 13  1  0  0  0
 12 15  1  0  0  0
 12 43  1  0  0  0
 13 14  2  0  0  0
 13 19  1  0  0  0
 15 16  1  0  0  0
 15 44  1  0  0  0
 15 45  1  0  0  0
 16 17  1  0  0  0
 16 18  1  0  0  0
 16 46  1  0  0  0
 17 47  1  0  0  0
 17 48  1  0  0  0
 17 49  1  0  0  0
 18 50  1  0  0  0
 18 51  1  0  0  0
 18 52  1  0  0  0
 19 20  1  0  0  0
 19 53  1  0  0  0
 20 21  1  0  0  0
 20 23  1  0  0  0
 20 54  1  0  0  0
 21 22  2  0  0  0
 21 27  1  0  0  0
 23 24  1  0  0  0
 23 55  1  0  0  0
 23 56  1  0  0  0
 24 25  1  0  0  0
 24 26  1  0  0  0
 24 57  1  0  0  0
 25 58  1  0  0  0
 25 59  1  0  0  0
 25 60  1  0  0  0
 26 61  1  0  0  0
 26 62  1  0  0  0
 26 63  1  0  0  0
 27 28  1  0  0  0
 27 64  1  0  0  0
 28 29  1  0  0  0
 28 30  1  0  0  0
 28 65  1  0  0  0
 29 34  1  0  0  0
 29 66  1  0  0  0
 29 67  1  0  0  0
 30 31  1  0  0  0
 30 68  1  0  0  0
 30 69  1  0  0  0
 31 32  1  0  0  0
 31 33  1  0  0  0
 31 70  1  0  0  0
 32 71  1  0  0  0
 32 72  1  0  0  0
 32 73  1  0  0  0
 33 74  1  0  0  0
 33 75  1  0  0  0
 33 76  1  0  0  0
 34 77  1  0  0  0
M  END
$$$$
