@<TRIPOS>MOLECULE
ALD_1_B_702
 77 77 0 0 0
SMALL
NO_CHARGES

@<TRIPOS>ATOM
      1 C9        -20.1120   -9.1800   -3.8090 C.2    702  ALD702      0.0000
      2 O31       -20.4980   -9.8110   -2.8400 O.2    702  ALD702      0.0000
      3 O8        -20.5460   -7.8070   -4.0090 O.3    702  ALD702      0.0000
      4 C7        -21.6330   -7.2470   -3.2760 C.3    702  ALD702      0.0000
      5 C3        -22.9710   -7.5970   -3.8930 C.ar   702  ALD702      0.0000
      6 C4        -23.4920   -8.8800   -3.7660 C.ar   702  ALD702      0.0000
      7 C5        -24.7280   -9.1870   -4.3300 C.ar   702  ALD702      0.0000
      8 C6        -25.4410   -8.2130   -5.0210 C.ar   702  ALD702      0.0000
      9 C1        -24.9200   -6.9300   -5.1480 C.ar   702  ALD702      0.0000
     10 C2        -23.6860   -6.6250   -4.5840 C.ar   702  ALD702      0.0000
     11 N10       -19.2790   -9.6430   -4.7300 N.am   702  ALD702      0.0000
     12 C11       -18.7450  -10.9910   -4.7620 C.3    702  ALD702      0.0000
     13 C12       -17.4050  -11.0130   -4.1180 C.2    702  ALD702      0.0000
     14 O32       -16.5000  -10.3420   -4.5670 O.2    702  ALD702      0.0000
     15 C30       -18.6440  -11.3570   -6.2410 C.3    702  ALD702      0.0000
     16 C31       -18.1640  -12.7740   -6.5220 C.3    702  ALD702      0.0000
     17 C32       -19.2580  -13.7970   -6.2810 C.3    702  ALD702      0.0000
     18 C33       -17.6580  -12.8410   -7.9640 C.3    702  ALD702      0.0000
     19 N13       -17.2750  -11.7970   -3.0530 N.am   702  ALD702      0.0000
     20 C14       -15.9610  -12.0450   -2.4430 C.3    702  ALD702      0.0000
     21 C15       -15.1000  -12.9230   -3.3150 C.2    702  ALD702      0.0000
     22 O34       -15.4910  -13.9710   -3.7990 O.2    702  ALD702      0.0000
     23 C24       -16.1590  -12.5720   -1.0290 C.3    702  ALD702      0.0000
     24 C25       -17.0140  -11.6250   -0.1840 C.3    702  ALD702      0.0000
     25 C26       -16.3730  -10.2550    0.0240 C.3    702  ALD702      0.0000
     26 C27       -17.3520  -12.2540    1.1710 C.3    702  ALD702      0.0000
     27 N16       -13.8740  -12.4540   -3.5290 N.am   702  ALD702      0.0000
     28 C17       -12.9330  -13.0730   -4.4540 C.3    702  ALD702      0.0000
     29 C22       -11.7350  -13.5360   -3.6200 C.3    702  ALD702      0.0000
     30 C18       -12.5110  -12.0720   -5.5200 C.3    702  ALD702      0.0000
     31 C19       -13.5090  -11.8430   -6.6540 C.3    702  ALD702      0.0000
     32 C20       -13.8660  -13.1420   -7.3640 C.3    702  ALD702      0.0000
     33 C21       -12.9500  -10.8220   -7.6480 C.3    702  ALD702      0.0000
     34 O33       -10.8410  -14.3320   -4.4050 O.3    702  ALD702      0.0000
     35 H         -21.5122   -6.1449   -3.2386 H      702  ALD702      0.0000
     36 H         -21.6149   -7.5821   -2.2183 H      702  ALD702      0.0000
     37 H         -22.9409   -9.6617   -3.2191 H      702  ALD702      0.0000
     38 H         -25.1415  -10.2049   -4.2281 H      702  ALD702      0.0000
     39 H         -26.4196   -8.4584   -5.4678 H      702  ALD702      0.0000
     40 H         -25.4847   -6.1563   -5.6957 H      702  ALD702      0.0000
     41 H         -23.2828   -5.6036   -4.6926 H      702  ALD702      0.0000
     42 H         -18.9799   -8.9825   -5.4587 H      702  ALD702      0.0000
     43 H         -19.4445  -11.7010   -4.2641 H      702  ALD702      0.0000
     44 H         -17.9527  -10.6366   -6.7383 H      702  ALD702      0.0000
     45 H         -19.6361  -11.2067   -6.7283 H      702  ALD702      0.0000
     46 H         -17.3022  -13.0094   -5.8523 H      702  ALD702      0.0000
     47 H         -18.9050  -14.8302   -6.4974 H      702  ALD702      0.0000
     48 H         -20.1495  -13.6162   -6.9221 H      702  ALD702      0.0000
     49 H         -19.6060  -13.7958   -5.2245 H      702  ALD702      0.0000
     50 H         -17.2658  -13.8527   -8.2123 H      702  ALD702      0.0000
     51 H         -16.8295  -12.1215   -8.1488 H      702  ALD702      0.0000
     52 H         -18.4628  -12.6126   -8.6981 H      702  ALD702      0.0000
     53 H         -18.1016  -12.2829   -2.6813 H      702  ALD702      0.0000
     54 H         -15.4361  -11.0654   -2.3452 H      702  ALD702      0.0000
     55 H         -15.1675  -12.7232   -0.5430 H      702  ALD702      0.0000
     56 H         -16.6439  -13.5746   -1.0777 H      702  ALD702      0.0000
     57 H         -17.9908  -11.4589   -0.6993 H      702  ALD702      0.0000
     58 H         -16.9796   -9.6195    0.7075 H      702  ALD702      0.0000
     59 H         -16.2748   -9.6821   -0.9237 H      702  ALD702      0.0000
     60 H         -15.3571  -10.3366    0.4710 H      702  ALD702      0.0000
     61 H         -18.0206  -11.6007    1.7753 H      702  ALD702      0.0000
     62 H         -16.4382  -12.4423    1.7779 H      702  ALD702      0.0000
     63 H         -17.8758  -13.2290    1.0529 H      702  ALD702      0.0000
     64 H         -13.5702  -11.5946   -3.0505 H      702  ALD702      0.0000
     65 H         -13.3695  -13.9762   -4.9335 H      702  ALD702      0.0000
     66 H         -12.0766  -14.1305   -2.7441 H      702  ALD702      0.0000
     67 H         -11.1780  -12.6638   -3.2166 H      702  ALD702      0.0000
     68 H         -11.5586  -12.4262   -5.9789 H      702  ALD702      0.0000
     69 H         -12.2641  -11.0985   -5.0363 H      702  ALD702      0.0000
     70 H         -14.4461  -11.4179   -6.2180 H      702  ALD702      0.0000
     71 H         -14.4690  -12.9524   -8.2794 H      702  ALD702      0.0000
     72 H         -14.4751  -13.8227   -6.7304 H      702  ALD702      0.0000
     73 H         -12.9610  -13.7034   -7.6870 H      702  ALD702      0.0000
     74 H         -13.6805  -10.5947   -8.4566 H      702  ALD702      0.0000
     75 H         -12.0190  -11.1849   -8.1382 H      702  ALD702      0.0000
     76 H         -12.7079   -9.8549   -7.1529 H      702  ALD702      0.0000
     77 H         -11.2100  -15.2008   -4.4955 H      702  ALD702      0.0000
@<TRIPOS>BOND
     1     1     2    2
     2     1     3    1
     3     1    11    1
     4     3     4    1
     5     4     5    1
     6     4    35    1
     7     4    36    1
     8     5     6   ar
     9     5    10   ar
    10     6     7   ar
    11     6    37    1
    12     7     8   ar
    13     7    38    1
    14     8     9   ar
    15     8    39    1
    16     9    10   ar
    17     9    40    1
    18    10    41    1
    19    11    12    1
    20    11    42    1
    21    12    13    1
    22    12    15    1
    23    12    43    1
    24    13    14    2
    25    13    19    1
    26    15    16    1
    27    15    44    1
    28    15    45    1
    29    16    17    1
    30    16    18    1
    31    16    46    1
    32    17    47    1
    33    17    48    1
    34    17    49    1
    35    18    50    1
    36    18    51    1
    37    18    52    1
    38    19    20    1
    39    19    53    1
    40    20    21    1
    41    20    23    1
    42    20    54    1
    43    21    22    2
    44    21    27    1
    45    23    24    1
    46    23    55    1
    47    23    56    1
    48    24    25    1
    49    24    26    1
    50    24    57    1
    51    25    58    1
    52    25    59    1
    53    25    60    1
    54    26    61    1
    55    26    62    1
    56    26    63    1
    57    27    28    1
    58    27    64    1
    59    28    29    1
    60    28    30    1
    61    28    65    1
    62    29    34    1
    63    29    66    1
    64    29    67    1
    65    30    31    1
    66    30    68    1
    67    30    69    1
    68    31    32    1
    69    31    33    1
    70    31    70    1
    71    32    71    1
    72    32    72    1
    73    32    73    1
    74    33    74    1
    75    33    75    1
    76    33    76    1
    77    34    77    1

