@<TRIPOS>MOLECULE
EDO_1_A_405
 10 9 0 0 0
SMALL
NO_CHARGES

@<TRIPOS>ATOM
      1 C1          1.0880  -11.0750  -18.2900 C.3    405  EDO405      0.0000
      2 O1          0.4010  -11.2240  -17.0390 O.3    405  EDO405      0.0000
      3 C2          0.0590  -10.7030  -19.3500 C.3    405  EDO405      0.0000
      4 O2         -0.8600  -11.7870  -19.4540 O.3    405  EDO405      0.0000
      5 H           1.6159  -12.0169  -18.5469 H      405  EDO405      0.0000
      6 H           1.8533  -10.2784  -18.1898 H      405  EDO405      0.0000
      7 H          -0.3681  -11.7540  -17.2159 H      405  EDO405      0.0000
      8 H           0.5460  -10.5107  -20.3294 H      405  EDO405      0.0000
      9 H          -0.4891   -9.7815  -19.0648 H      405  EDO405      0.0000
     10 H          -0.5719  -12.3637  -20.1493 H      405  EDO405      0.0000
@<TRIPOS>BOND
     1     1     2    1
     2     1     3    1
     3     1     5    1
     4     1     6    1
     5     2     7    1
     6     3     4    1
     7     3     8    1
     8     3     9    1
     9     4    10    1

