@<TRIPOS>MOLECULE
EDO_1_A_408
 10 9 0 0 0
SMALL
NO_CHARGES

@<TRIPOS>ATOM
      1 C1          6.6450    2.2420  -45.7710 C.3    408  EDO408      0.0000
      2 O1          7.1830    3.2570  -44.9150 O.3    408  EDO408      0.0000
      3 C2          6.5380    0.9220  -45.0140 C.3    408  EDO408      0.0000
      4 O2          5.2820    0.8700  -44.3270 O.3    408  EDO408      0.0000
      5 H           7.3247    2.1162  -46.6409 H      408  EDO408      0.0000
      6 H           5.6583    2.5578  -46.1697 H      408  EDO408      0.0000
      7 H           7.2472    4.0615  -45.4125 H      408  EDO408      0.0000
      8 H           7.3777    0.7858  -44.3013 H      408  EDO408      0.0000
      9 H           6.5748    0.0723  -45.7273 H      408  EDO408      0.0000
     10 H           5.2970    1.5530  -43.6685 H      408  EDO408      0.0000
@<TRIPOS>BOND
     1     1     2    1
     2     1     3    1
     3     1     5    1
     4     1     6    1
     5     2     7    1
     6     3     4    1
     7     3     8    1
     8     3     9    1
     9     4    10    1

