EDO_1_A_408
  -ISIS-            3D

 10  9  0  0  0  0  0  0  0  0  1 V2000
    6.6450    2.2420  -45.7710 C   0  0  0  0  0
    7.1830    3.2570  -44.9150 O   0  0  0  0  0
    6.5380    0.9220  -45.0140 C   0  0  0  0  0
    5.2820    0.8700  -44.3270 O   0  0  0  0  0
    7.3247    2.1162  -46.6409 H   0  0  0  0  0
    5.6583    2.5578  -46.1697 H   0  0  0  0  0
    7.2472    4.0615  -45.4125 H   0  0  0  0  0
    7.3777    0.7858  -44.3013 H   0  0  0  0  0
    6.5748    0.0723  -45.7273 H   0  0  0  0  0
    5.2970    1.5530  -43.6685 H   0  0  0  0  0
  1  2  1  0  0  0
  1  3  1  0  0  0
  1  5  1  0  0  0
  1  6  1  0  0  0
  2  7  1  0  0  0
  3  4  1  0  0  0
  3  8  1  0  0  0
  3  9  1  0  0  0
  4 10  1  0  0  0
M  END
$$$$
