@<TRIPOS>MOLECULE
EDO_1_B_701
 10 9 0 0 0
SMALL
NO_CHARGES

@<TRIPOS>ATOM
      1 C1         16.3330   10.7070  -24.7940 C.3    701  EDO701      0.0000
      2 O1         16.3590    9.5460  -25.6390 O.3    701  EDO701      0.0000
      3 C2         15.2270   10.5430  -23.7540 C.3    701  EDO701      0.0000
      4 O2         14.0540   11.2240  -24.2130 O.3    701  EDO701      0.0000
      5 H          16.1851   11.6132  -25.4157 H      701  EDO701      0.0000
      6 H          17.3201   10.8160  -24.2964 H      701  EDO701      0.0000
      7 H          16.7528    8.8281  -25.1605 H      701  EDO701      0.0000
      8 H          15.5417   10.9754  -22.7804 H      701  EDO701      0.0000
      9 H          14.9875    9.4761  -23.5699 H      701  EDO701      0.0000
     10 H          14.1788   12.1577  -24.1037 H      701  EDO701      0.0000
@<TRIPOS>BOND
     1     1     2    1
     2     1     3    1
     3     1     5    1
     4     1     6    1
     5     2     7    1
     6     3     4    1
     7     3     8    1
     8     3     9    1
     9     4    10    1

