@<TRIPOS>MOLECULE
EDO_1_B_704
 10 9 0 0 0
SMALL
NO_CHARGES

@<TRIPOS>ATOM
      1 C1         17.8470    8.1230  -10.9370 C.3    704  EDO704      0.0000
      2 O1         17.5930    9.5350  -10.9890 O.3    704  EDO704      0.0000
      3 C2         18.2530    7.7100   -9.5230 C.3    704  EDO704      0.0000
      4 O2         17.3350    6.7370   -9.0010 O.3    704  EDO704      0.0000
      5 H          18.6613    7.8855  -11.6525 H      704  EDO704      0.0000
      6 H          16.9486    7.5702  -11.2829 H      704  EDO704      0.0000
      7 H          16.7669    9.6998  -10.5533 H      704  EDO704      0.0000
      8 H          18.2607    8.5850   -8.8411 H      704  EDO704      0.0000
      9 H          19.2835    7.2961   -9.5142 H      704  EDO704      0.0000
     10 H          17.5912    5.8813   -9.3194 H      704  EDO704      0.0000
@<TRIPOS>BOND
     1     1     2    1
     2     1     3    1
     3     1     5    1
     4     1     6    1
     5     2     7    1
     6     3     4    1
     7     3     8    1
     8     3     9    1
     9     4    10    1

