@<TRIPOS>MOLECULE
EDO_1_A_404
 10 9 0 0 0
SMALL
NO_CHARGES

@<TRIPOS>ATOM
      1 C1        -11.4750  -10.3230  -17.3100 C.3    404  EDO404      0.0000
      2 O1        -11.2190  -10.1330  -15.9090 O.3    404  EDO404      0.0000
      3 C2        -12.9220  -10.7420  -17.5750 C.3    404  EDO404      0.0000
      4 O2        -13.1640  -12.0640  -17.0680 O.3    404  EDO404      0.0000
      5 H         -10.7770  -11.0864  -17.7148 H      404  EDO404      0.0000
      6 H         -11.2626   -9.3727  -17.8452 H      404  EDO404      0.0000
      7 H         -10.3137   -9.8715  -15.8062 H      404  EDO404      0.0000
      8 H         -13.1276  -10.7400  -18.6656 H      404  EDO404      0.0000
      9 H         -13.6307  -10.0265  -17.1078 H      404  EDO404      0.0000
     10 H         -12.9009  -12.0546  -16.1556 H      404  EDO404      0.0000
@<TRIPOS>BOND
     1     1     2    1
     2     1     3    1
     3     1     5    1
     4     1     6    1
     5     2     7    1
     6     3     4    1
     7     3     8    1
     8     3     9    1
     9     4    10    1

