EDO_1_B_703
  -ISIS-            3D

 10  9  0  0  0  0  0  0  0  0  1 V2000
    7.6060    3.0000  -11.6850 C   0  0  0  0  0
    7.8570    3.2780  -10.3060 O   0  0  0  0  0
    6.2760    3.6340  -12.0530 C   0  0  0  0  0
    6.4430    5.0470  -11.9420 O   0  0  0  0  0
    7.5700    1.9012  -11.8394 H   0  0  0  0  0
    8.4251    3.4053  -12.3161 H   0  0  0  0  0
    8.7664    3.0818  -10.1236 H   0  0  0  0  0
    5.4681    3.2834  -11.3765 H   0  0  0  0  0
    5.9903    3.3741  -13.0936 H   0  0  0  0  0
    5.5840    5.4486  -11.9314 H   0  0  0  0  0
  1  2  1  0  0  0
  1  3  1  0  0  0
  1  5  1  0  0  0
  1  6  1  0  0  0
  2  7  1  0  0  0
  3  4  1  0  0  0
  3  8  1  0  0  0
  3  9  1  0  0  0
  4 10  1  0  0  0
M  END
$$$$
