@<TRIPOS>MOLECULE
EDO_1_A_409
 10 9 0 0 0
SMALL
NO_CHARGES

@<TRIPOS>ATOM
      1 C1         23.8400   -2.3260   -9.8970 C.3    409  EDO409      0.0000
      2 O1         25.1540   -1.9350  -10.3320 O.3    409  EDO409      0.0000
      3 C2         23.2940   -3.4030  -10.8370 C.3    409  EDO409      0.0000
      4 O2         23.2180   -4.6950  -10.2060 O.3    409  EDO409      0.0000
      5 H          23.1757   -1.4359   -9.9103 H      409  EDO409      0.0000
      6 H          23.8811   -2.6913   -8.8498 H      409  EDO409      0.0000
      7 H          25.4668   -1.2534   -9.7523 H      409  EDO409      0.0000
      8 H          23.8986   -3.4735  -11.7654 H      409  EDO409      0.0000
      9 H          22.2683   -3.1247  -11.1579 H      409  EDO409      0.0000
     10 H          24.1027   -5.0287  -10.1313 H      409  EDO409      0.0000
@<TRIPOS>BOND
     1     1     2    1
     2     1     3    1
     3     1     5    1
     4     1     6    1
     5     2     7    1
     6     3     4    1
     7     3     8    1
     8     3     9    1
     9     4    10    1

