EDO_1_A_407
  -ISIS-            3D

 10  9  0  0  0  0  0  0  0  0  1 V2000
   10.8520   -0.1680  -40.8550 C   0  0  0  0  0
   10.2390    0.4340  -39.7130 O   0  0  0  0  0
   10.1970   -1.5140  -41.1150 C   0  0  0  0  0
    9.5630   -1.4810  -42.3970 O   0  0  0  0  0
   11.9320   -0.3051  -40.6389 H   0  0  0  0  0
   10.7858    0.5090  -41.7322 H   0  0  0  0  0
    9.5221    0.9781  -40.0110 H   0  0  0  0  0
    9.4644   -1.7851  -40.3263 H   0  0  0  0  0
   10.9645   -2.3157  -41.1265 H   0  0  0  0  0
    8.6496   -1.2570  -42.2737 H   0  0  0  0  0
  1  2  1  0  0  0
  1  3  1  0  0  0
  1  5  1  0  0  0
  1  6  1  0  0  0
  2  7  1  0  0  0
  3  4  1  0  0  0
  3  8  1  0  0  0
  3  9  1  0  0  0
  4 10  1  0  0  0
M  END
$$$$
