@<TRIPOS>MOLECULE
EDO_1_B_703
 10 9 0 0 0
SMALL
NO_CHARGES

@<TRIPOS>ATOM
      1 C1          7.6060    3.0000  -11.6850 C.3    703  EDO703      0.0000
      2 O1          7.8570    3.2780  -10.3060 O.3    703  EDO703      0.0000
      3 C2          6.2760    3.6340  -12.0530 C.3    703  EDO703      0.0000
      4 O2          6.4430    5.0470  -11.9420 O.3    703  EDO703      0.0000
      5 H           7.5700    1.9012  -11.8394 H      703  EDO703      0.0000
      6 H           8.4251    3.4053  -12.3161 H      703  EDO703      0.0000
      7 H           8.7664    3.0818  -10.1236 H      703  EDO703      0.0000
      8 H           5.4681    3.2834  -11.3765 H      703  EDO703      0.0000
      9 H           5.9903    3.3741  -13.0936 H      703  EDO703      0.0000
     10 H           5.5840    5.4486  -11.9314 H      703  EDO703      0.0000
@<TRIPOS>BOND
     1     1     2    1
     2     1     3    1
     3     1     5    1
     4     1     6    1
     5     2     7    1
     6     3     4    1
     7     3     8    1
     8     3     9    1
     9     4    10    1

