EDO_1_A_410
  -ISIS-            3D

 10  9  0  0  0  0  0  0  0  0  1 V2000
   -3.2770  -17.4750  -14.0540 C   0  0  0  0  0
   -3.8110  -16.2650  -14.6070 O   0  0  0  0  0
   -4.2700  -18.0570  -13.0530 C   0  0  0  0  0
   -5.5410  -18.1790  -13.7050 O   0  0  0  0  0
   -2.3068  -17.2552  -13.5632 H   0  0  0  0  0
   -3.0776  -18.1962  -14.8742 H   0  0  0  0  0
   -4.7352  -16.4255  -14.7625 H   0  0  0  0  0
   -4.3785  -17.3832  -12.1778 H   0  0  0  0  0
   -3.9257  -19.0421  -12.6735 H   0  0  0  0  0
   -5.6722  -19.0871  -13.9435 H   0  0  0  0  0
  1  2  1  0  0  0
  1  3  1  0  0  0
  1  5  1  0  0  0
  1  6  1  0  0  0
  2  7  1  0  0  0
  3  4  1  0  0  0
  3  8  1  0  0  0
  3  9  1  0  0  0
  4 10  1  0  0  0
M  END
$$$$
