@<TRIPOS>MOLECULE
EDO_1_B_706
 10 9 0 0 0
SMALL
NO_CHARGES

@<TRIPOS>ATOM
      1 C1         11.8580    0.0800    8.2690 C.3    706  EDO706      0.0000
      2 O1         11.1060    0.3490    7.0780 O.3    706  EDO706      0.0000
      3 C2         12.2190   -1.4030    8.3000 C.3    706  EDO706      0.0000
      4 O2         13.6410   -1.5730    8.3190 O.3    706  EDO706      0.0000
      5 H          11.2362    0.3452    9.1488 H      706  EDO706      0.0000
      6 H          12.7585    0.7280    8.3010 H      706  EDO706      0.0000
      7 H          11.7073    0.3450    6.3442 H      706  EDO706      0.0000
      8 H          11.8152   -1.9321    7.4125 H      706  EDO706      0.0000
      9 H          11.7713   -1.8969    9.1883 H      706  EDO706      0.0000
     10 H          13.9423   -1.4910    9.2142 H      706  EDO706      0.0000
@<TRIPOS>BOND
     1     1     2    1
     2     1     3    1
     3     1     5    1
     4     1     6    1
     5     2     7    1
     6     3     4    1
     7     3     8    1
     8     3     9    1
     9     4    10    1

