@<TRIPOS>MOLECULE
EDO_1_A_402
 10 9 0 0 0
SMALL
NO_CHARGES

@<TRIPOS>ATOM
      1 C1         26.3830   -8.2900  -37.2080 C.3    402  EDO402      0.0000
      2 O1         27.2130   -9.3600  -37.6730 O.3    402  EDO402      0.0000
      3 C2         25.0130   -8.3660  -37.8740 C.3    402  EDO402      0.0000
      4 O2         24.9180   -7.2730  -38.7960 O.3    402  EDO402      0.0000
      5 H          26.8753   -7.3149  -37.4068 H      402  EDO402      0.0000
      6 H          26.2726   -8.3787  -36.1063 H      402  EDO402      0.0000
      7 H          28.0900   -9.2204  -37.3409 H      402  EDO402      0.0000
      8 H          24.2058   -8.2742  -37.1170 H      402  EDO402      0.0000
      9 H          24.8704   -9.3307  -38.4039 H      402  EDO402      0.0000
     10 H          24.1231   -7.3812  -39.3011 H      402  EDO402      0.0000
@<TRIPOS>BOND
     1     1     2    1
     2     1     3    1
     3     1     5    1
     4     1     6    1
     5     2     7    1
     6     3     4    1
     7     3     8    1
     8     3     9    1
     9     4    10    1

