@<TRIPOS>MOLECULE
EDO_1_A_407
 10 9 0 0 0
SMALL
NO_CHARGES

@<TRIPOS>ATOM
      1 C1         10.8520   -0.1680  -40.8550 C.3    407  EDO407      0.0000
      2 O1         10.2390    0.4340  -39.7130 O.3    407  EDO407      0.0000
      3 C2         10.1970   -1.5140  -41.1150 C.3    407  EDO407      0.0000
      4 O2          9.5630   -1.4810  -42.3970 O.3    407  EDO407      0.0000
      5 H          11.9320   -0.3051  -40.6389 H      407  EDO407      0.0000
      6 H          10.7858    0.5090  -41.7322 H      407  EDO407      0.0000
      7 H           9.5221    0.9781  -40.0110 H      407  EDO407      0.0000
      8 H           9.4644   -1.7851  -40.3263 H      407  EDO407      0.0000
      9 H          10.9645   -2.3157  -41.1265 H      407  EDO407      0.0000
     10 H           8.6496   -1.2570  -42.2737 H      407  EDO407      0.0000
@<TRIPOS>BOND
     1     1     2    1
     2     1     3    1
     3     1     5    1
     4     1     6    1
     5     2     7    1
     6     3     4    1
     7     3     8    1
     8     3     9    1
     9     4    10    1

