EDO_1_B_706
  -ISIS-            3D

 10  9  0  0  0  0  0  0  0  0  1 V2000
   11.8580    0.0800    8.2690 C   0  0  0  0  0
   11.1060    0.3490    7.0780 O   0  0  0  0  0
   12.2190   -1.4030    8.3000 C   0  0  0  0  0
   13.6410   -1.5730    8.3190 O   0  0  0  0  0
   11.2362    0.3452    9.1488 H   0  0  0  0  0
   12.7585    0.7280    8.3010 H   0  0  0  0  0
   11.7073    0.3450    6.3442 H   0  0  0  0  0
   11.8152   -1.9321    7.4125 H   0  0  0  0  0
   11.7713   -1.8969    9.1883 H   0  0  0  0  0
   13.9423   -1.4910    9.2142 H   0  0  0  0  0
  1  2  1  0  0  0
  1  3  1  0  0  0
  1  5  1  0  0  0
  1  6  1  0  0  0
  2  7  1  0  0  0
  3  4  1  0  0  0
  3  8  1  0  0  0
  3  9  1  0  0  0
  4 10  1  0  0  0
M  END
$$$$
