@<TRIPOS>MOLECULE
DMS_2_A_401
 10 9 0 0 0
SMALL
NO_CHARGES

@<TRIPOS>ATOM
      1 S          -7.6100   -1.4980   -4.9230 S.o    401  DMS401      0.0000
      2 O          -8.2960   -0.2060   -4.6490 O.2    401  DMS401      0.0000
      3 C1         -7.3780   -2.4330   -3.3880 C.3    401  DMS401      0.0000
      4 C2         -5.8810   -1.1990   -5.4140 C.3    401  DMS401      0.0000
      5 H          -6.8278   -3.3713   -3.6050 H      401  DMS401      0.0000
      6 H          -8.3696   -2.6814   -2.9575 H      401  DMS401      0.0000
      7 H          -6.8032   -1.8238   -2.6608 H      401  DMS401      0.0000
      8 H          -5.3696   -2.1696   -5.5771 H      401  DMS401      0.0000
      9 H          -5.3584   -0.6310   -4.6173 H      401  DMS401      0.0000
     10 H          -5.8650   -0.6132   -6.3558 H      401  DMS401      0.0000
@<TRIPOS>BOND
     1     1     2    2
     2     1     3    1
     3     1     4    1
     4     3     5    1
     5     3     6    1
     6     3     7    1
     7     4     8    1
     8     4     9    1
     9     4    10    1

