@<TRIPOS>MOLECULE
1PE_1_B_402
 38 37 0 0 0
SMALL
NO_CHARGES

@<TRIPOS>ATOM
      1 OH2        -8.2770   27.7750    7.4680 O.3    402  1PE402      0.0000
      2 C12        -7.5110   28.9900    7.8420 C.3    402  1PE402      0.0000
      3 C22        -6.1580   28.5790    8.4550 C.3    402  1PE402      0.0000
      4 OH3        -5.1730   29.7510    8.2540 O.3    402  1PE402      0.0000
      5 C13        -3.1570   29.6650    6.6100 C.3    402  1PE402      0.0000
      6 C23        -4.1780   28.9680    7.5770 C.3    402  1PE402      0.0000
      7 OH4        -3.4150   29.0270    5.2470 O.3    402  1PE402      0.0000
      8 C14        -2.8550   27.6270    3.2790 C.3    402  1PE402      0.0000
      9 C24        -2.3400   28.4600    4.5140 C.3    402  1PE402      0.0000
     10 OH5        -3.3880   26.4350    3.8960 O.3    402  1PE402      0.0000
     11 C15        -4.0530   24.1460    3.7060 C.3    402  1PE402      0.0000
     12 C25        -3.7790   25.4370    2.9550 C.3    402  1PE402      0.0000
     13 OH6        -2.7580   23.6900    4.1150 O.3    402  1PE402      0.0000
     14 C16        -1.4630   21.9980    5.0120 C.3    402  1PE402      0.0000
     15 C26        -2.8940   22.4970    4.9220 C.3    402  1PE402      0.0000
     16 OH7        -1.0800   21.3540    3.7890 O.3    402  1PE402      0.0000
     17 H          -9.0752   28.0594    7.0430 H      402  1PE402      0.0000
     18 H          -8.0991   29.6055    8.5540 H      402  1PE402      0.0000
     19 H          -7.3447   29.5970    6.9270 H      402  1PE402      0.0000
     20 H          -5.8467   27.5843    8.0818 H      402  1PE402      0.0000
     21 H          -6.2916   28.4394    9.5490 H      402  1PE402      0.0000
     22 H          -2.1093   29.4937    6.9297 H      402  1PE402      0.0000
     23 H          -3.3410   30.7560    6.5459 H      402  1PE402      0.0000
     24 H          -4.6504   28.2077    6.9210 H      402  1PE402      0.0000
     25 H          -3.5967   28.4055    8.3404 H      402  1PE402      0.0000
     26 H          -2.0110   27.3760    2.6041 H      402  1PE402      0.0000
     27 H          -3.6380   28.1711    2.7132 H      402  1PE402      0.0000
     28 H          -1.7298   27.8120    5.1772 H      402  1PE402      0.0000
     29 H          -1.6808   29.2789    4.1583 H      402  1PE402      0.0000
     30 H          -4.5299   23.3992    3.0376 H      402  1PE402      0.0000
     31 H          -4.7136   24.3207    4.5803 H      402  1PE402      0.0000
     32 H          -2.9874   25.2813    2.1926 H      402  1PE402      0.0000
     33 H          -4.6942   25.7741    2.4248 H      402  1PE402      0.0000
     34 H          -1.3648   21.2737    5.8486 H      402  1PE402      0.0000
     35 H          -0.7579   22.8271    5.2281 H      402  1PE402      0.0000
     36 H          -3.5600   21.7481    4.4468 H      402  1PE402      0.0000
     37 H          -3.2940   22.7597    5.9232 H      402  1PE402      0.0000
     38 H          -1.4885   20.4988    3.7536 H      402  1PE402      0.0000
@<TRIPOS>BOND
     1     1     2    1
     2     1    17    1
     3     2     3    1
     4     2    18    1
     5     2    19    1
     6     3     4    1
     7     3    20    1
     8     3    21    1
     9     4     6    1
    10     5     6    1
    11     5     7    1
    12     5    22    1
    13     5    23    1
    14     6    24    1
    15     6    25    1
    16     7     9    1
    17     8     9    1
    18     8    10    1
    19     8    26    1
    20     8    27    1
    21     9    28    1
    22     9    29    1
    23    10    12    1
    24    11    12    1
    25    11    13    1
    26    11    30    1
    27    11    31    1
    28    12    32    1
    29    12    33    1
    30    13    15    1
    31    14    15    1
    32    14    16    1
    33    14    34    1
    34    14    35    1
    35    15    36    1
    36    15    37    1
    37    16    38    1

