1PE_1_B_402
  -ISIS-            3D

 38 37  0  0  0  0  0  0  0  0  1 V2000
   -8.2770   27.7750    7.4680 O   0  0  0  0  0
   -7.5110   28.9900    7.8420 C   0  0  0  0  0
   -6.1580   28.5790    8.4550 C   0  0  0  0  0
   -5.1730   29.7510    8.2540 O   0  0  0  0  0
   -3.1570   29.6650    6.6100 C   0  0  0  0  0
   -4.1780   28.9680    7.5770 C   0  0  0  0  0
   -3.4150   29.0270    5.2470 O   0  0  0  0  0
   -2.8550   27.6270    3.2790 C   0  0  0  0  0
   -2.3400   28.4600    4.5140 C   0  0  0  0  0
   -3.3880   26.4350    3.8960 O   0  0  0  0  0
   -4.0530   24.1460    3.7060 C   0  0  0  0  0
   -3.7790   25.4370    2.9550 C   0  0  0  0  0
   -2.7580   23.6900    4.1150 O   0  0  0  0  0
   -1.4630   21.9980    5.0120 C   0  0  0  0  0
   -2.8940   22.4970    4.9220 C   0  0  0  0  0
   -1.0800   21.3540    3.7890 O   0  0  0  0  0
   -9.0752   28.0594    7.0430 H   0  0  0  0  0
   -8.0991   29.6055    8.5540 H   0  0  0  0  0
   -7.3447   29.5970    6.9270 H   0  0  0  0  0
   -5.8467   27.5843    8.0818 H   0  0  0  0  0
   -6.2916   28.4394    9.5490 H   0  0  0  0  0
   -2.1093   29.4937    6.9297 H   0  0  0  0  0
   -3.3410   30.7560    6.5459 H   0  0  0  0  0
   -4.6504   28.2077    6.9210 H   0  0  0  0  0
   -3.5967   28.4055    8.3404 H   0  0  0  0  0
   -2.0110   27.3760    2.6041 H   0  0  0  0  0
   -3.6380   28.1711    2.7132 H   0  0  0  0  0
   -1.7298   27.8120    5.1772 H   0  0  0  0  0
   -1.6808   29.2789    4.1583 H   0  0  0  0  0
   -4.5299   23.3992    3.0376 H   0  0  0  0  0
   -4.7136   24.3207    4.5803 H   0  0  0  0  0
   -2.9874   25.2813    2.1926 H   0  0  0  0  0
   -4.6942   25.7741    2.4248 H   0  0  0  0  0
   -1.3648   21.2737    5.8486 H   0  0  0  0  0
   -0.7579   22.8271    5.2281 H   0  0  0  0  0
   -3.5600   21.7481    4.4468 H   0  0  0  0  0
   -3.2940   22.7597    5.9232 H   0  0  0  0  0
   -1.4885   20.4988    3.7536 H   0  0  0  0  0
  1  2  1  0  0  0
  1 17  1  0  0  0
  2  3  1  0  0  0
  2 18  1  0  0  0
  2 19  1  0  0  0
  3  4  1  0  0  0
  3 20  1  0  0  0
  3 21  1  0  0  0
  4  6  1  0  0  0
  5  6  1  0  0  0
  5  7  1  0  0  0
  5 22  1  0  0  0
  5 23  1  0  0  0
  6 24  1  0  0  0
  6 25  1  0  0  0
  7  9  1  0  0  0
  8  9  1  0  0  0
  8 10  1  0  0  0
  8 26  1  0  0  0
  8 27  1  0  0  0
  9 28  1  0  0  0
  9 29  1  0  0  0
 10 12  1  0  0  0
 11 12  1  0  0  0
 11 13  1  0  0  0
 11 30  1  0  0  0
 11 31  1  0  0  0
 12 32  1  0  0  0
 12 33  1  0  0  0
 13 15  1  0  0  0
 14 15  1  0  0  0
 14 16  1  0  0  0
 14 34  1  0  0  0
 14 35  1  0  0  0
 15 36  1  0  0  0
 15 37  1  0  0  0
 16 38  1  0  0  0
M  END
$$$$
