@<TRIPOS>MOLECULE
JNZ_1_A_201
 17 18 0 0 0
SMALL
NO_CHARGES

@<TRIPOS>ATOM
      1 C8        -47.6900  -29.1000    3.4140 C.ar   201  JNZ201      0.0000
      2 C7        -48.7670  -28.7240    4.2230 C.ar   201  JNZ201      0.0000
      3 C9        -46.4580  -29.4380    3.9740 C.ar   201  JNZ201      0.0000
      4 C6        -48.6160  -28.6900    5.6050 C.ar   201  JNZ201      0.0000
      5 C10       -46.3010  -29.4100    5.3760 C.ar   201  JNZ201      0.0000
      6 C5        -47.3600  -29.0400    6.1750 C.ar   201  JNZ201      0.0000
      7 C2        -45.2200  -29.6820    6.2910 C.ar   201  JNZ201      0.0000
      8 N3        -45.6450  -29.4850    7.5200 N.ar   201  JNZ201      0.0000
      9 N4        -46.9250  -29.1010    7.4460 N.ar   201  JNZ201      0.0000
     10 N1        -43.8940  -30.1120    5.9210 N.3    201  JNZ201      0.0000
     11 H         -47.8161  -29.1267    2.3182 H      201  JNZ201      0.0000
     12 H         -49.7343  -28.4559    3.7657 H      201  JNZ201      0.0000
     13 H         -45.6139  -29.7272    3.3269 H      201  JNZ201      0.0000
     14 H         -49.4556  -28.3963    6.2560 H      201  JNZ201      0.0000
     15 H         -47.6641  -28.8162    8.4980 H      201  JNZ201      0.0000
     16 H         -43.7142  -30.2242    4.9154 H      201  JNZ201      0.0000
     17 H         -43.2493  -30.2666    6.7061 H      201  JNZ201      0.0000
@<TRIPOS>BOND
     1     1     2   ar
     2     1     3   ar
     3     1    11    1
     4     2     4   ar
     5     2    12    1
     6     3     5   ar
     7     3    13    1
     8     4     6   ar
     9     4    14    1
    10     5     6   ar
    11     5     7   ar
    12     6     9   ar
    13     7     8   ar
    14     7    10    1
    15     8     9   ar
    16     9    15    1
    17    10    16    1
    18    10    17    1

