DMS_1_A_402
  -ISIS-            3D

 10  9  0  0  0  0  0  0  0  0  1 V2000
    6.1780   -1.0550   -6.3460 S   0  0  0  0  0
    7.1380   -0.8240   -7.4600 O   0  0  0  0  0
    7.1160   -0.8870   -4.8480 C   0  0  0  0  0
    5.9120   -2.8000   -6.2610 C   0  0  0  0  0
    6.4935   -1.1821   -3.9786 H   0  0  0  0  0
    7.4227    0.1717   -4.7248 H   0  0  0  0  0
    8.0240   -1.5234   -4.8858 H   0  0  0  0  0
    5.3169   -3.0475   -5.3582 H   0  0  0  0  0
    6.8809   -3.3391   -6.2240 H   0  0  0  0  0
    5.3510   -3.1296   -7.1593 H   0  0  0  0  0
  1  2  2  0  0  0
  1  3  1  0  0  0
  1  4  1  0  0  0
  3  5  1  0  0  0
  3  6  1  0  0  0
  3  7  1  0  0  0
  4  8  1  0  0  0
  4  9  1  0  0  0
  4 10  1  0  0  0
M  END
$$$$
