@<TRIPOS>MOLECULE
DMS_1_A_402
 10 9 0 0 0
SMALL
NO_CHARGES

@<TRIPOS>ATOM
      1 S           6.1380   -1.0280   -6.2540 S.o    402  DMS402      0.0000
      2 O           7.0320   -0.8940   -7.4260 O.2    402  DMS402      0.0000
      3 C1          7.1800   -0.8300   -4.8300 C.3    402  DMS402      0.0000
      4 C2          5.8040   -2.7560   -6.0580 C.3    402  DMS402      0.0000
      5 H           6.6050   -1.0539   -3.9084 H      402  DMS402      0.0000
      6 H           7.5386    0.2188   -4.7812 H      402  DMS402      0.0000
      7 H           8.0561   -1.5083   -4.8930 H      402  DMS402      0.0000
      8 H           5.2594   -2.9293   -5.1079 H      402  DMS402      0.0000
      9 H           6.7501   -3.3360   -6.0528 H      402  DMS402      0.0000
     10 H           5.1723   -3.1050   -6.9004 H      402  DMS402      0.0000
@<TRIPOS>BOND
     1     1     2    2
     2     1     3    1
     3     1     4    1
     4     3     5    1
     5     3     6    1
     6     3     7    1
     7     4     8    1
     8     4     9    1
     9     4    10    1

