@<TRIPOS>MOLECULE
DMS_2_A_401
 10 9 0 0 0
SMALL
NO_CHARGES

@<TRIPOS>ATOM
      1 S          -6.9350  -28.0290  -21.4360 S.o    401  DMS401      0.0000
      2 O          -7.6830  -27.0710  -22.2890 O.2    401  DMS401      0.0000
      3 C1         -5.7590  -28.8190  -22.5110 C.3    401  DMS401      0.0000
      4 C2         -5.7890  -27.0690  -20.4980 C.3    401  DMS401      0.0000
      5 H          -5.0665  -29.4473  -21.9143 H      401  DMS401      0.0000
      6 H          -5.1778  -28.0600  -23.0740 H      401  DMS401      0.0000
      7 H          -6.2990  -29.4670  -23.2311 H      401  DMS401      0.0000
      8 H          -5.0971  -27.7390  -19.9477 H      401  DMS401      0.0000
      9 H          -6.3437  -26.4491  -19.7643 H      401  DMS401      0.0000
     10 H          -5.2045  -26.4014  -21.1640 H      401  DMS401      0.0000
@<TRIPOS>BOND
     1     1     2    2
     2     1     3    1
     3     1     4    1
     4     3     5    1
     5     3     6    1
     6     3     7    1
     7     4     8    1
     8     4     9    1
     9     4    10    1

