DMS_2_A_403
  -ISIS-            3D

 10  9  0  0  0  0  0  0  0  0  1 V2000
   -2.3390  -19.0770   -8.0350 S   0  0  0  0  0
   -3.6700  -18.5690   -8.5240 O   0  0  0  0  0
   -1.1030  -18.2290   -8.9990 C   0  0  0  0  0
   -2.1490  -20.6870   -8.7900 C   0  0  0  0  0
   -0.1051  -18.6724   -8.8044 H   0  0  0  0  0
   -1.0827  -17.1590   -8.7072 H   0  0  0  0  0
   -1.3373  -18.3043  -10.0807 H   0  0  0  0  0
   -1.1246  -21.0699   -8.6047 H   0  0  0  0  0
   -2.3295  -20.6251   -9.8828 H   0  0  0  0  0
   -2.8810  -21.3894   -8.3413 H   0  0  0  0  0
  1  2  2  0  0  0
  1  3  1  0  0  0
  1  4  1  0  0  0
  3  5  1  0  0  0
  3  6  1  0  0  0
  3  7  1  0  0  0
  4  8  1  0  0  0
  4  9  1  0  0  0
  4 10  1  0  0  0
M  END
$$$$
