DMS_2_A_403
  -ISIS-            3D

 10  9  0  0  0  0  0  0  0  0  1 V2000
   -2.4600  -18.7090   -8.0680 S   0  0  0  0  0
   -3.7370  -18.6720   -8.9350 O   0  0  0  0  0
   -1.1310  -18.3150   -9.1910 C   0  0  0  0  0
   -2.0740  -20.4220   -7.9300 C   0  0  0  0  0
   -0.1539  -18.4967   -8.6985 H   0  0  0  0  0
   -1.1958  -17.2432   -9.4695 H   0  0  0  0  0
   -1.2031  -18.9302  -10.1113 H   0  0  0  0  0
   -1.0705  -20.5493   -7.4748 H   0  0  0  0  0
   -2.0921  -20.9098   -8.9262 H   0  0  0  0  0
   -2.8237  -20.9144   -7.2774 H   0  0  0  0  0
  1  2  2  0  0  0
  1  3  1  0  0  0
  1  4  1  0  0  0
  3  5  1  0  0  0
  3  6  1  0  0  0
  3  7  1  0  0  0
  4  8  1  0  0  0
  4  9  1  0  0  0
  4 10  1  0  0  0
M  END
$$$$
