@<TRIPOS>MOLECULE
DMS_2_A_403
 10 9 0 0 0
SMALL
NO_CHARGES

@<TRIPOS>ATOM
      1 S          -2.4600  -18.7090   -8.0680 S.o    403  DMS403      0.0000
      2 O          -3.7370  -18.6720   -8.9350 O.2    403  DMS403      0.0000
      3 C1         -1.1310  -18.3150   -9.1910 C.3    403  DMS403      0.0000
      4 C2         -2.0740  -20.4220   -7.9300 C.3    403  DMS403      0.0000
      5 H          -0.1539  -18.4967   -8.6985 H      403  DMS403      0.0000
      6 H          -1.1958  -17.2432   -9.4695 H      403  DMS403      0.0000
      7 H          -1.2031  -18.9302  -10.1113 H      403  DMS403      0.0000
      8 H          -1.0705  -20.5493   -7.4748 H      403  DMS403      0.0000
      9 H          -2.0921  -20.9098   -8.9262 H      403  DMS403      0.0000
     10 H          -2.8237  -20.9144   -7.2774 H      403  DMS403      0.0000
@<TRIPOS>BOND
     1     1     2    2
     2     1     3    1
     3     1     4    1
     4     3     5    1
     5     3     6    1
     6     3     7    1
     7     4     8    1
     8     4     9    1
     9     4    10    1

