@<TRIPOS>MOLECULE
DMS_1_A_403
 10 9 0 0 0
SMALL
NO_CHARGES

@<TRIPOS>ATOM
      1 S           2.2730  -19.0920    8.0660 S.o    403  DMS403      0.0000
      2 O           3.5660  -18.6490    8.7490 O.2    403  DMS403      0.0000
      3 C1          0.9690  -18.1920    8.8770 C.3    403  DMS403      0.0000
      4 C2          1.9170  -20.6990    8.7590 C.3    403  DMS403      0.0000
      5 H          -0.0165  -18.5811    8.5489 H      403  DMS403      0.0000
      6 H           1.0399  -17.1193    8.6033 H      403  DMS403      0.0000
      7 H           1.0579  -18.2905    9.9783 H      403  DMS403      0.0000
      8 H           0.9090  -21.0317    8.4368 H      403  DMS403      0.0000
      9 H           1.9576  -20.6598    9.8668 H      403  DMS403      0.0000
     10 H           2.6689  -21.4287    8.3950 H      403  DMS403      0.0000
@<TRIPOS>BOND
     1     1     2    2
     2     1     3    1
     3     1     4    1
     4     3     5    1
     5     3     6    1
     6     3     7    1
     7     4     8    1
     8     4     9    1
     9     4    10    1

