@<TRIPOS>MOLECULE
DMS_2_A_401
 10 9 0 0 0
SMALL
NO_CHARGES

@<TRIPOS>ATOM
      1 S          -6.9390  -28.1670  -21.3970 S.o    401  DMS401      0.0000
      2 O          -7.6450  -27.2140  -22.2830 O.2    401  DMS401      0.0000
      3 C1         -5.7130  -28.9680  -22.3960 C.3    401  DMS401      0.0000
      4 C2         -5.8530  -27.1930  -20.4080 C.3    401  DMS401      0.0000
      5 H          -5.0543  -29.5907  -21.7568 H      401  DMS401      0.0000
      6 H          -5.1008  -28.2159  -22.9350 H      401  DMS401      0.0000
      7 H          -6.2145  -29.6230  -23.1374 H      401  DMS401      0.0000
      8 H          -5.1887  -27.8537  -19.8143 H      401  DMS401      0.0000
      9 H          -6.4497  -26.5690  -19.7116 H      401  DMS401      0.0000
     10 H          -5.2358  -26.5288  -21.0475 H      401  DMS401      0.0000
@<TRIPOS>BOND
     1     1     2    2
     2     1     3    1
     3     1     4    1
     4     3     5    1
     5     3     6    1
     6     3     7    1
     7     4     8    1
     8     4     9    1
     9     4    10    1

