@<TRIPOS>MOLECULE
DMS_1_A_402
 10 9 0 0 0
SMALL
NO_CHARGES

@<TRIPOS>ATOM
      1 S           6.2220   -1.1050   -6.3230 S.o    402  DMS402      0.0000
      2 O           7.0950   -1.0270   -7.5120 O.2    402  DMS402      0.0000
      3 C1          7.2670   -0.8990   -4.8900 C.3    402  DMS402      0.0000
      4 C2          5.8120   -2.8100   -6.0840 C.3    402  DMS402      0.0000
      5 H           6.6770   -1.0716   -3.9669 H      402  DMS402      0.0000
      6 H           7.6646    0.1364   -4.8734 H      402  DMS402      0.0000
      7 H           8.1160   -1.6124   -4.9264 H      402  DMS402      0.0000
      8 H           5.2589   -2.9345   -5.1308 H      402  DMS402      0.0000
      9 H           6.7321   -3.4297   -6.0611 H      402  DMS402      0.0000
     10 H           5.1670   -3.1526   -6.9189 H      402  DMS402      0.0000
@<TRIPOS>BOND
     1     1     2    2
     2     1     3    1
     3     1     4    1
     4     3     5    1
     5     3     6    1
     6     3     7    1
     7     4     8    1
     8     4     9    1
     9     4    10    1

