DMS_1_A_512
  -ISIS-            3D

 10  9  0  0  0  0  0  0  0  0  1 V2000
   11.4580    2.9210   33.1900 S   0  0  0  0  0
   12.3470    3.2730   32.0400 O   0  0  0  0  0
   12.1020    3.6920   34.6980 C   0  0  0  0  0
    9.8810    3.8120   33.0340 C   0  0  0  0  0
   11.4105    3.4919   35.5418 H   0  0  0  0  0
   12.2015    4.7867   34.5490 H   0  0  0  0  0
   13.0970    3.2613   34.9319 H   0  0  0  0  0
    9.2498    3.6071   33.9227 H   0  0  0  0  0
    9.3536    3.4626   32.1229 H   0  0  0  0  0
   10.0707    4.9020   32.9539 H   0  0  0  0  0
  1  2  2  0  0  0
  1  3  1  0  0  0
  1  4  1  0  0  0
  3  5  1  0  0  0
  3  6  1  0  0  0
  3  7  1  0  0  0
  4  8  1  0  0  0
  4  9  1  0  0  0
  4 10  1  0  0  0
M  END
$$$$
