DMS_1_A_510
  -ISIS-            3D

 10  9  0  0  0  0  0  0  0  0  1 V2000
  -24.9470   -9.5800   38.3120 S   0  0  0  0  0
  -25.3830  -10.0280   36.9620 O   0  0  0  0  0
  -23.8010  -10.8000   39.0080 C   0  0  0  0  0
  -23.8340   -8.1640   38.1570 C   0  0  0  0  0
  -23.4238  -10.4393   39.9867 H   0  0  0  0  0
  -22.9493  -10.9561   38.3146 H   0  0  0  0  0
  -24.3357  -11.7606   39.1549 H   0  0  0  0  0
  -23.4572   -7.8757   39.1596 H   0  0  0  0  0
  -24.3885   -7.3101   37.7168 H   0  0  0  0  0
  -22.9801   -8.4251   37.4989 H   0  0  0  0  0
  1  2  2  0  0  0
  1  3  1  0  0  0
  1  4  1  0  0  0
  3  5  1  0  0  0
  3  6  1  0  0  0
  3  7  1  0  0  0
  4  8  1  0  0  0
  4  9  1  0  0  0
  4 10  1  0  0  0
M  END
$$$$
