@<TRIPOS>MOLECULE
DMS_1_B_708
 10 9 0 0 0
SMALL
NO_CHARGES

@<TRIPOS>ATOM
      1 S          12.1210    4.9690   -5.9790 S.o    708  DMS708      0.0000
      2 O          12.6720    6.2450   -6.5240 O.2    708  DMS708      0.0000
      3 C1         11.6760    3.8670   -7.3540 C.3    708  DMS708      0.0000
      4 C2         13.4450    3.9630   -5.2440 C.3    708  DMS708      0.0000
      5 H          11.3229    2.8952   -6.9525 H      708  DMS708      0.0000
      6 H          12.5580    3.7031   -8.0065 H      708  DMS708      0.0000
      7 H          10.8629    4.3336   -7.9468 H      708  DMS708      0.0000
      8 H          13.0307    2.9900   -4.9095 H      708  DMS708      0.0000
      9 H          13.8677    4.4994   -4.3700 H      708  DMS708      0.0000
     10 H          14.2465    3.7908   -5.9913 H      708  DMS708      0.0000
@<TRIPOS>BOND
     1     1     2    2
     2     1     3    1
     3     1     4    1
     4     3     5    1
     5     3     6    1
     6     3     7    1
     7     4     8    1
     8     4     9    1
     9     4    10    1

