@<TRIPOS>MOLECULE
DMS_1_A_509
 10 9 0 0 0
SMALL
NO_CHARGES

@<TRIPOS>ATOM
      1 S          -0.9940   -2.5650   17.1820 S.o    509  DMS509      0.0000
      2 O          -0.8040   -4.0250   17.4460 O.2    509  DMS509      0.0000
      3 C1         -2.4270   -2.3560   16.1040 C.3    509  DMS509      0.0000
      4 C2          0.3180   -1.9080   16.1210 C.3    509  DMS509      0.0000
      5 H          -2.5595   -1.2808   15.8661 H      509  DMS509      0.0000
      6 H          -3.3337   -2.7288   16.6229 H      509  DMS509      0.0000
      7 H          -2.2794   -2.9289   15.1656 H      509  DMS509      0.0000
      8 H           0.1119   -0.8425   15.8921 H      509  DMS509      0.0000
      9 H           0.3651   -2.4896   15.1776 H      509  DMS509      0.0000
     10 H           1.2897   -1.9869   16.6500 H      509  DMS509      0.0000
@<TRIPOS>BOND
     1     1     2    2
     2     1     3    1
     3     1     4    1
     4     3     5    1
     5     3     6    1
     6     3     7    1
     7     4     8    1
     8     4     9    1
     9     4    10    1

