@<TRIPOS>MOLECULE
DMS_1_A_511
 10 9 0 0 0
SMALL
NO_CHARGES

@<TRIPOS>ATOM
      1 S         -24.0610   -3.3090    9.7780 S.o    511  DMS511      0.0000
      2 O         -23.6100   -4.7060   10.0710 O.2    511  DMS511      0.0000
      3 C1        -23.7710   -2.8890    8.0360 C.3    511  DMS511      0.0000
      4 C2        -25.8700   -3.2460    9.8040 C.3    511  DMS511      0.0000
      5 H         -24.1710   -1.8759    7.8264 H      511  DMS511      0.0000
      6 H         -24.2724   -3.6311    7.3815 H      511  DMS511      0.0000
      7 H         -22.6803   -2.8998    7.8348 H      511  DMS511      0.0000
      8 H         -26.2105   -2.2245    9.5376 H      511  DMS511      0.0000
      9 H         -26.2300   -3.4960   10.8229 H      511  DMS511      0.0000
     10 H         -26.2832   -3.9772    9.0793 H      511  DMS511      0.0000
@<TRIPOS>BOND
     1     1     2    2
     2     1     3    1
     3     1     4    1
     4     3     5    1
     5     3     6    1
     6     3     7    1
     7     4     8    1
     8     4     9    1
     9     4    10    1

