@<TRIPOS>MOLECULE
DMS_1_A_512
 10 9 0 0 0
SMALL
NO_CHARGES

@<TRIPOS>ATOM
      1 S          11.4580    2.9210   33.1900 S.o    512  DMS512      0.0000
      2 O          12.3470    3.2730   32.0400 O.2    512  DMS512      0.0000
      3 C1         12.1020    3.6920   34.6980 C.3    512  DMS512      0.0000
      4 C2          9.8810    3.8120   33.0340 C.3    512  DMS512      0.0000
      5 H          11.4105    3.4919   35.5418 H      512  DMS512      0.0000
      6 H          12.2015    4.7867   34.5490 H      512  DMS512      0.0000
      7 H          13.0970    3.2613   34.9319 H      512  DMS512      0.0000
      8 H           9.2498    3.6071   33.9227 H      512  DMS512      0.0000
      9 H           9.3536    3.4626   32.1229 H      512  DMS512      0.0000
     10 H          10.0707    4.9020   32.9539 H      512  DMS512      0.0000
@<TRIPOS>BOND
     1     1     2    2
     2     1     3    1
     3     1     4    1
     4     3     5    1
     5     3     6    1
     6     3     7    1
     7     4     8    1
     8     4     9    1
     9     4    10    1

