@<TRIPOS>MOLECULE
DMS_1_B_706
 10 9 0 0 0
SMALL
NO_CHARGES

@<TRIPOS>ATOM
      1 S          -7.1900    3.4210   11.6180 S.o    706  DMS706      0.0000
      2 O          -7.7670    2.0460   11.5210 O.2    706  DMS706      0.0000
      3 C1         -6.9140    3.8300   13.3650 C.3    706  DMS706      0.0000
      4 C2         -5.4760    3.3520   11.0180 C.3    706  DMS706      0.0000
      5 H          -6.4044    4.8124   13.4395 H      706  DMS706      0.0000
      6 H          -6.2868    3.0480   13.8399 H      706  DMS706      0.0000
      7 H          -7.8915    3.8845   13.8864 H      706  DMS706      0.0000
      8 H          -4.9972    4.3437   11.1503 H      706  DMS706      0.0000
      9 H          -5.4760    3.0867    9.9410 H      706  DMS706      0.0000
     10 H          -4.9091    2.5860   11.5859 H      706  DMS706      0.0000
@<TRIPOS>BOND
     1     1     2    2
     2     1     3    1
     3     1     4    1
     4     3     5    1
     5     3     6    1
     6     3     7    1
     7     4     8    1
     8     4     9    1
     9     4    10    1

