DMS_1_B_706
  -ISIS-            3D

 10  9  0  0  0  0  0  0  0  0  1 V2000
   -7.1900    3.4210   11.6180 S   0  0  0  0  0
   -7.7670    2.0460   11.5210 O   0  0  0  0  0
   -6.9140    3.8300   13.3650 C   0  0  0  0  0
   -5.4760    3.3520   11.0180 C   0  0  0  0  0
   -6.4044    4.8124   13.4395 H   0  0  0  0  0
   -6.2868    3.0480   13.8399 H   0  0  0  0  0
   -7.8915    3.8845   13.8864 H   0  0  0  0  0
   -4.9972    4.3437   11.1503 H   0  0  0  0  0
   -5.4760    3.0867    9.9410 H   0  0  0  0  0
   -4.9091    2.5860   11.5859 H   0  0  0  0  0
  1  2  2  0  0  0
  1  3  1  0  0  0
  1  4  1  0  0  0
  3  5  1  0  0  0
  3  6  1  0  0  0
  3  7  1  0  0  0
  4  8  1  0  0  0
  4  9  1  0  0  0
  4 10  1  0  0  0
M  END
$$$$
