DMS_1_A_402
  -ISIS-            3D

 10  9  0  0  0  0  0  0  0  0  1 V2000
    6.1770   -1.0490   -6.3000 S   0  0  0  0  0
    7.1720   -0.8820   -7.3860 O   0  0  0  0  0
    7.0490   -0.8380   -4.7460 C   0  0  0  0  0
    5.8460   -2.7750   -6.1590 C   0  0  0  0  0
    6.3718   -1.0766   -3.9007 H   0  0  0  0  0
    7.3814    0.2162   -4.6543 H   0  0  0  0  0
    7.9365   -1.5025   -4.7102 H   0  0  0  0  0
    5.2009   -2.9647   -5.2767 H   0  0  0  0  0
    6.7927   -3.3436   -6.0530 H   0  0  0  0  0
    5.3167   -3.1233   -7.0695 H   0  0  0  0  0
  1  2  2  0  0  0
  1  3  1  0  0  0
  1  4  1  0  0  0
  3  5  1  0  0  0
  3  6  1  0  0  0
  3  7  1  0  0  0
  4  8  1  0  0  0
  4  9  1  0  0  0
  4 10  1  0  0  0
M  END
$$$$
