DMS_1_A_403
  -ISIS-            3D

 10  9  0  0  0  0  0  0  0  0  1 V2000
    2.3440  -18.8650    7.9900 S   0  0  0  0  0
    3.6060  -18.7540    8.8670 O   0  0  0  0  0
    1.0320  -18.1020    8.9160 C   0  0  0  0  0
    1.8150  -20.5490    8.1870 C   0  0  0  0  0
    0.0592  -18.2946    8.4191 H   0  0  0  0  0
    1.2025  -17.0067    8.9565 H   0  0  0  0  0
    1.0051  -18.5013    9.9506 H   0  0  0  0  0
    0.8218  -20.6894    7.7135 H   0  0  0  0  0
    1.7524  -20.8128    9.2627 H   0  0  0  0  0
    2.5449  -21.2222    7.6924 H   0  0  0  0  0
  1  2  2  0  0  0
  1  3  1  0  0  0
  1  4  1  0  0  0
  3  5  1  0  0  0
  3  6  1  0  0  0
  3  7  1  0  0  0
  4  8  1  0  0  0
  4  9  1  0  0  0
  4 10  1  0  0  0
M  END
$$$$
