@<TRIPOS>MOLECULE
DMS_2_A_401
 10 9 0 0 0
SMALL
NO_CHARGES

@<TRIPOS>ATOM
      1 S          -7.0700  -28.0780  -21.3720 S.o    401  DMS401      0.0000
      2 O          -7.7590  -27.1490  -22.2690 O.2    401  DMS401      0.0000
      3 C1         -5.7870  -28.8110  -22.3530 C.3    401  DMS401      0.0000
      4 C2         -6.0600  -27.1160  -20.3030 C.3    401  DMS401      0.0000
      5 H          -5.1332  -29.4359  -21.7111 H      401  DMS401      0.0000
      6 H          -5.1780  -28.0245  -22.8446 H      401  DMS401      0.0000
      7 H          -6.2428  -29.4549  -23.1329 H      401  DMS401      0.0000
      8 H          -5.4063  -27.7806  -19.7018 H      401  DMS401      0.0000
      9 H          -6.7042  -26.5320  -19.6143 H      401  DMS401      0.0000
     10 H          -5.4317  -26.4144  -20.8894 H      401  DMS401      0.0000
@<TRIPOS>BOND
     1     1     2    2
     2     1     3    1
     3     1     4    1
     4     3     5    1
     5     3     6    1
     6     3     7    1
     7     4     8    1
     8     4     9    1
     9     4    10    1

