@<TRIPOS>MOLECULE
DMS_1_A_405
 10 9 0 0 0
SMALL
NO_CHARGES

@<TRIPOS>ATOM
      1 S           5.6670    0.4020   18.3330 S.o    405  DMS405      0.0000
      2 O           4.9830    1.6250   18.9010 O.2    405  DMS405      0.0000
      3 C1          6.9860    1.0050   17.3340 C.3    405  DMS405      0.0000
      4 C2          6.6640   -0.2440   19.6480 C.3    405  DMS405      0.0000
      5 H           7.6284    0.1623   17.0063 H      405  DMS405      0.0000
      6 H           7.5986    1.7380   17.8983 H      405  DMS405      0.0000
      7 H           6.5679    1.5034   16.4356 H      405  DMS405      0.0000
      8 H           7.3146   -1.0563   19.2645 H      405  DMS405      0.0000
      9 H           6.0047   -0.6582   20.4380 H      405  DMS405      0.0000
     10 H           7.2931    0.5569   20.0882 H      405  DMS405      0.0000
@<TRIPOS>BOND
     1     1     2    2
     2     1     3    1
     3     1     4    1
     4     3     5    1
     5     3     6    1
     6     3     7    1
     7     4     8    1
     8     4     9    1
     9     4    10    1

