DMS_1_A_401
  -ISIS-            3D

 10  9  0  0  0  0  0  0  0  0  1 V2000
    6.9780  -27.9840   21.4740 S   0  0  0  0  0
    7.6730  -26.9710   22.3110 O   0  0  0  0  0
    5.6510  -28.6000   22.4850 C   0  0  0  0  0
    6.0160  -27.0900   20.3160 C   0  0  0  0  0
    4.9949  -29.2610   21.8826 H   0  0  0  0  0
    5.0533  -27.7594   22.8937 H   0  0  0  0  0
    6.0731  -29.1859   23.3269 H   0  0  0  0  0
    5.3546  -27.7839   19.7580 H   0  0  0  0  0
    6.6871  -26.5810   19.5942 H   0  0  0  0  0
    5.3970  -26.3265   20.8304 H   0  0  0  0  0
  1  2  2  0  0  0
  1  3  1  0  0  0
  1  4  1  0  0  0
  3  5  1  0  0  0
  3  6  1  0  0  0
  3  7  1  0  0  0
  4  8  1  0  0  0
  4  9  1  0  0  0
  4 10  1  0  0  0
M  END
$$$$
