@<TRIPOS>MOLECULE
DMS_1_A_402
 10 9 0 0 0
SMALL
NO_CHARGES

@<TRIPOS>ATOM
      1 S           6.1980   -1.0860   -6.2850 S.o    402  DMS402      0.0000
      2 O           7.1790   -0.7980   -7.3730 O.2    402  DMS402      0.0000
      3 C1          7.0750   -0.9810   -4.7250 C.3    402  DMS402      0.0000
      4 C2          5.8790   -2.8330   -6.2910 C.3    402  DMS402      0.0000
      5 H           6.4067   -1.2961   -3.8976 H      402  DMS402      0.0000
      6 H           7.3912    0.0682   -4.5533 H      402  DMS402      0.0000
      7 H           7.9726   -1.6322   -4.7458 H      402  DMS402      0.0000
      8 H           5.2406   -3.1015   -5.4244 H      402  DMS402      0.0000
      9 H           6.8319   -3.3980   -6.2377 H      402  DMS402      0.0000
     10 H           5.3483   -3.1058   -7.2260 H      402  DMS402      0.0000
@<TRIPOS>BOND
     1     1     2    2
     2     1     3    1
     3     1     4    1
     4     3     5    1
     5     3     6    1
     6     3     7    1
     7     4     8    1
     8     4     9    1
     9     4    10    1

