@<TRIPOS>MOLECULE
SHA_1_A_201
 18 18 0 0 0
SMALL
NO_CHARGES

@<TRIPOS>ATOM
      1 C1        -49.4710  -29.0310    5.4180 C.ar   201  SHA201      0.0000
      2 C2        -49.1620  -28.9450    6.7670 C.ar   201  SHA201      0.0000
      3 C3        -47.8190  -28.7590    7.1360 C.ar   201  SHA201      0.0000
      4 C4        -46.8120  -28.6870    6.1310 C.ar   201  SHA201      0.0000
      5 C5        -47.1260  -28.7800    4.8450 C.ar   201  SHA201      0.0000
      6 C6        -48.4650  -28.9550    4.4750 C.ar   201  SHA201      0.0000
      7 O6        -48.8220  -29.0600    3.0760 O.3    201  SHA201      0.0000
      8 C7        -50.8680  -29.2500    4.8090 C.2    201  SHA201      0.0000
      9 O7        -51.1760  -29.1930    3.6760 O.2    201  SHA201      0.0000
     10 N8        -51.9550  -29.5730    5.5960 N.am   201  SHA201      0.0000
     11 O9        -51.7590  -29.6430    6.8350 O.3    201  SHA201      0.0000
     12 H         -49.9052  -28.9885    7.5727 H      201  SHA201      0.0000
     13 H         -47.5422  -28.6720    8.2004 H      201  SHA201      0.0000
     14 H         -45.7604  -28.5485    6.4361 H      201  SHA201      0.0000
     15 H         -46.3364  -28.7202    4.0770 H      201  SHA201      0.0000
     16 H         -48.0672  -28.9760    2.5097 H      201  SHA201      0.0000
     17 H         -52.8751  -29.7209    5.1563 H      201  SHA201      0.0000
     18 H         -51.5078  -30.5202    7.0979 H      201  SHA201      0.0000
@<TRIPOS>BOND
     1     1     2   ar
     2     1     6   ar
     3     1     8    1
     4     2     3   ar
     5     2    12    1
     6     3     4   ar
     7     3    13    1
     8     4     5   ar
     9     4    14    1
    10     5     6   ar
    11     5    15    1
    12     6     7    1
    13     7    16    1
    14     8     9    2
    15     8    10    1
    16    10    11    1
    17    10    17    1
    18    11    18    1

