@<TRIPOS>MOLECULE
FMT_1_E_803
 3 2 0 0 0
SMALL
NO_CHARGES

@<TRIPOS>ATOM
      1 C          22.7340   60.0100   -3.0810 C.2    803  FMT803      0.0000
      2 O1         22.8630   61.0210   -2.3910 O.2    803  FMT803      0.0000
      3 O2         22.5400   60.0030   -4.2970 O.2    803  FMT803     -0.5000
@<TRIPOS>BOND
     1     1     2   ar
     2     1     3   ar

