@<TRIPOS>MOLECULE
FMT_1_E_801
 3 2 0 0 0
SMALL
NO_CHARGES

@<TRIPOS>ATOM
      1 C          25.8520   41.6340    4.2240 C.2    801  FMT801      0.0000
      2 O1         25.2210   41.2470    5.2050 O.2    801  FMT801      0.0000
      3 O2         25.8610   41.0750    3.1290 O.2    801  FMT801     -0.5000
@<TRIPOS>BOND
     1     1     2   ar
     2     1     3   ar

