@<TRIPOS>MOLECULE
FMT_1_E_805
 3 2 0 0 0
SMALL
NO_CHARGES

@<TRIPOS>ATOM
      1 C          24.2990   52.0720   25.2200 C.2    805  FMT805      0.0000
      2 O1         25.3270   52.6880   24.9460 O.2    805  FMT805      0.0000
      3 O2         23.6520   52.2360   26.2520 O.2    805  FMT805     -0.5000
@<TRIPOS>BOND
     1     1     2   ar
     2     1     3   ar

