@<TRIPOS>MOLECULE
FMT_1_E_806
 3 2 0 0 0
SMALL
NO_CHARGES

@<TRIPOS>ATOM
      1 C           9.5530   64.1740   17.6400 C.2    806  FMT806      0.0000
      2 O1          9.6660   65.3590   17.3310 O.2    806  FMT806      0.0000
      3 O2         10.4330   63.5000   18.1720 O.2    806  FMT806     -0.5000
@<TRIPOS>BOND
     1     1     2   ar
     2     1     3   ar

