@<TRIPOS>MOLECULE
FMT_1_L_302
 3 2 0 0 0
SMALL
NO_CHARGES

@<TRIPOS>ATOM
      1 C          23.5620   88.8280  -10.6570 C.2    302  FMT302      0.0000
      2 O1         22.6280   89.4800  -11.1240 O.2    302  FMT302      0.0000
      3 O2         24.5600   89.3030  -10.1140 O.2    302  FMT302     -0.5000
@<TRIPOS>BOND
     1     1     2   ar
     2     1     3   ar

