BDF_1_B_4402
  -ISIS-            3D

 24 24  0  0  0  0  0  0  0  0  1 V2000
   64.7620   20.4200   19.5800 C   0  0  0  0  0
   65.1050   21.3920   20.7030 C   0  0  0  0  0
   66.6160   21.6580   20.8130 C   0  0  0  0  0
   66.8970   22.5630   22.0080 C   0  0  0  0  0
   66.3520   21.9250   23.2750 C   0  0  0  0  0
   64.8830   21.5850   23.0910 C   0  0  0  0  0
   65.5380   19.2320   19.6670 O   0  0  0  0  0
   64.4360   22.6070   20.4820 O   0  0  0  0  0
   67.0910   22.2480   19.6100 O   0  0  0  0  0
   68.3000   22.7970   22.1280 O   0  0  0  0  0
   67.0760   20.7290   23.5780 O   0  0  0  0  0
   64.6560   20.7840   21.9160 O   0  0  0  0  0
   64.9531   20.8859   18.5925 H   0  0  0  0  0
   63.6846   20.1555   19.5978 H   0  0  0  0  0
   67.1520   20.6978   20.9596 H   0  0  0  0  0
   66.3924   23.5426   21.8579 H   0  0  0  0  0
   66.4583   22.6353   24.1241 H   0  0  0  0  0
   64.2719   22.5095   23.0350 H   0  0  0  0  0
   64.5108   21.0251   23.9738 H   0  0  0  0  0
   65.3968   18.8638   20.5315 H   0  0  0  0  0
   63.5025   22.4468   20.4630 H   0  0  0  0  0
   66.4477   22.8946   19.3414 H   0  0  0  0  0
   68.6249   22.9480   21.2482 H   0  0  0  0  0
   67.9977   20.9494   23.5058 H   0  0  0  0  0
  1  2  1  0  0  0
  1  7  1  0  0  0
  1 13  1  0  0  0
  1 14  1  0  0  0
  2  3  1  0  0  0
  2  8  1  0  0  0
  2 12  1  0  0  0
  3  4  1  0  0  0
  3  9  1  0  0  0
  3 15  1  0  0  0
  4  5  1  0  0  0
  4 10  1  0  0  0
  4 16  1  0  0  0
  5  6  1  0  0  0
  5 11  1  0  0  0
  5 17  1  0  0  0
  6 12  1  0  0  0
  6 18  1  0  0  0
  6 19  1  0  0  0
  7 20  1  0  0  0
  8 21  1  0  0  0
  9 22  1  0  0  0
 10 23  1  0  0  0
 11 24  1  0  0  0
M  END
$$$$
