DMS_1_A_403
  -ISIS-            3D

 10  9  0  0  0  0  0  0  0  0  1 V2000
    2.2960  -19.0420    8.0040 S   0  0  0  0  0
    3.5290  -18.6980    8.8180 O   0  0  0  0  0
    0.9600  -18.1030    8.7110 C   0  0  0  0  0
    1.7830  -20.6530    8.5660 C   0  0  0  0  0
   -0.0026  -18.4204    8.2600 H   0  0  0  0  0
    1.1173  -17.0257    8.4985 H   0  0  0  0  0
    0.9214  -18.2528    9.8092 H   0  0  0  0  0
    0.8006  -20.9113    8.1201 H   0  0  0  0  0
    1.7031  -20.6688    9.6721 H   0  0  0  0  0
    2.5310  -21.4073    8.2466 H   0  0  0  0  0
  1  2  2  0  0  0
  1  3  1  0  0  0
  1  4  1  0  0  0
  3  5  1  0  0  0
  3  6  1  0  0  0
  3  7  1  0  0  0
  4  8  1  0  0  0
  4  9  1  0  0  0
  4 10  1  0  0  0
M  END
$$$$
