@<TRIPOS>MOLECULE
DMS_2_A_402
 10 9 0 0 0
SMALL
NO_CHARGES

@<TRIPOS>ATOM
      1 S          -6.0870   -1.0040    6.3130 S.o    402  DMS402      0.0000
      2 O          -6.9060   -0.7070    7.5170 O.2    402  DMS402      0.0000
      3 C1         -7.1790   -0.9270    4.9040 C.3    402  DMS402      0.0000
      4 C2         -5.8120   -2.7530    6.3150 C.3    402  DMS402      0.0000
      5 H          -6.6452   -1.2737    3.9956 H      402  DMS402      0.0000
      6 H          -7.5045    0.1223    4.7505 H      402  DMS402      0.0000
      7 H          -8.0727   -1.5619    5.0738 H      402  DMS402      0.0000
      8 H          -5.3147   -3.0572    5.3713 H      402  DMS402      0.0000
      9 H          -6.7740   -3.2960    6.4172 H      402  DMS402      0.0000
     10 H          -5.1546   -3.0203    7.1676 H      402  DMS402      0.0000
@<TRIPOS>BOND
     1     1     2    2
     2     1     3    1
     3     1     4    1
     4     3     5    1
     5     3     6    1
     6     3     7    1
     7     4     8    1
     8     4     9    1
     9     4    10    1

