@<TRIPOS>MOLECULE
DMS_2_A_402
 10 9 0 0 0
SMALL
NO_CHARGES

@<TRIPOS>ATOM
      1 S          -6.2970   -1.2240    6.3850 S.o    402  DMS402      0.0000
      2 O          -7.0830   -1.5860    7.5710 O.2    402  DMS402      0.0000
      3 C1         -7.4750   -0.8760    5.0960 C.3    402  DMS402      0.0000
      4 C2         -5.6880   -2.7480    5.7270 C.3    402  DMS402      0.0000
      5 H          -6.9470   -0.7412    4.1299 H      402  DMS402      0.0000
      6 H          -8.0184    0.0598    5.3400 H      402  DMS402      0.0000
      7 H          -8.2067   -1.7049    5.0053 H      402  DMS402      0.0000
      8 H          -5.2056   -2.5687    4.7444 H      402  DMS402      0.0000
      9 H          -6.5152   -3.4770    5.6043 H      402  DMS402      0.0000
     10 H          -4.9344   -3.1725    6.4216 H      402  DMS402      0.0000
@<TRIPOS>BOND
     1     1     2    2
     2     1     3    1
     3     1     4    1
     4     3     5    1
     5     3     6    1
     6     3     7    1
     7     4     8    1
     8     4     9    1
     9     4    10    1

