@<TRIPOS>MOLECULE
DMS_2_A_401
 10 9 0 0 0
SMALL
NO_CHARGES

@<TRIPOS>ATOM
      1 S          -6.8900  -28.0160  -21.3530 S.o    401  DMS401      0.0000
      2 O          -7.6550  -27.1450  -22.3010 O.2    401  DMS401      0.0000
      3 C1         -5.6830  -28.8610  -22.3470 C.3    401  DMS401      0.0000
      4 C2         -5.7780  -26.9600  -20.4800 C.3    401  DMS401      0.0000
      5 H          -4.9844  -29.4231  -21.6940 H      401  DMS401      0.0000
      6 H          -5.1118  -28.1360  -22.9626 H      401  DMS401      0.0000
      7 H          -6.1986  -29.5771  -23.0188 H      401  DMS401      0.0000
      8 H          -5.0802  -27.5688  -19.8693 H      401  DMS401      0.0000
      9 H          -6.3561  -26.2962  -19.8052 H      401  DMS401      0.0000
     10 H          -5.1983  -26.3346  -21.1896 H      401  DMS401      0.0000
@<TRIPOS>BOND
     1     1     2    2
     2     1     3    1
     3     1     4    1
     4     3     5    1
     5     3     6    1
     6     3     7    1
     7     4     8    1
     8     4     9    1
     9     4    10    1

