@<TRIPOS>MOLECULE
FBB_1_A_201
 16 17 0 0 0
SMALL
NO_CHARGES

@<TRIPOS>ATOM
      1 F10       -46.0380  -29.1950    2.7910 F      201  FBB201      0.0000
      2 C5        -47.1210  -29.1730    3.5820 C.ar   201  FBB201      0.0000
      3 C6        -48.3880  -29.0210    3.0100 C.ar   201  FBB201      0.0000
      4 C1        -49.4940  -28.9890    3.8340 C.ar   201  FBB201      0.0000
      5 C4        -46.9390  -29.3260    4.9360 C.ar   201  FBB201      0.0000
      6 C3        -48.0470  -29.3220    5.7650 C.ar   201  FBB201      0.0000
      7 S9        -48.2400  -29.4610    7.4140 S.3    201  FBB201      0.0000
      8 C8        -49.9150  -29.3130    7.4210 C.ar   201  FBB201      0.0000
      9 N11       -50.7690  -29.3390    8.5790 N.3    201  FBB201      0.0000
     10 N7        -50.3860  -29.1340    6.1520 N.ar   201  FBB201      0.0000
     11 C2        -49.2990  -29.1430    5.2150 C.ar   201  FBB201      0.0000
     12 H         -48.4974  -28.9188    1.9209 H      201  FBB201      0.0000
     13 H         -50.5071  -28.8528    3.4233 H      201  FBB201      0.0000
     14 H         -45.9309  -29.4521    5.3550 H      201  FBB201      0.0000
     15 H         -50.3057  -29.4756    9.4862 H      201  FBB201      0.0000
     16 H         -51.7715  -29.2175    8.3898 H      201  FBB201      0.0000
@<TRIPOS>BOND
     1     1     2    1
     2     2     3   ar
     3     2     5   ar
     4     3     4   ar
     5     3    12    1
     6     4    11   ar
     7     4    13    1
     8     5     6   ar
     9     5    14    1
    10     6     7   ar
    11     6    11   ar
    12     7     8   ar
    13     8     9    1
    14     8    10   ar
    15     9    15    1
    16     9    16    1
    17    10    11   ar

