@<TRIPOS>MOLECULE
K36_1_B_402
 60 61 0 0 0
SMALL
NO_CHARGES

@<TRIPOS>ATOM
      1 C7        -20.2530   -2.5960   -0.2220 C.3    402  K36402      0.0000
      2 O8        -20.9550   -3.7680    0.3270 O.3    402  K36402      0.0000
      3 C9        -20.7520   -4.0890    1.6660 C.2    402  K36402      0.0000
      4 O10       -20.0860   -3.3700    2.3860 O.2    402  K36402      0.0000
      5 C1        -18.8340   -2.9050   -0.7630 C.ar   402  K36402      0.0000
      6 C2        -18.2610   -4.1660   -0.6190 C.ar   402  K36402      0.0000
      7 C3        -16.9730   -4.4680   -1.0840 C.ar   402  K36402      0.0000
      8 C4        -16.1930   -3.5150   -1.7390 C.ar   402  K36402      0.0000
      9 C5        -16.7320   -2.2520   -1.8960 C.ar   402  K36402      0.0000
     10 C6        -18.0190   -1.9490   -1.4170 C.ar   402  K36402      0.0000
     11 N11       -21.3550   -5.2630    2.1760 N.am   402  K36402      0.0000
     12 C12       -21.0040   -5.7220    3.5310 C.3    402  K36402      0.0000
     13 C17       -19.4360   -5.9120    3.6080 C.2    402  K36402      0.0000
     14 O18       -18.8150   -6.3560    2.6430 O.2    402  K36402      0.0000
     15 C13       -21.7260   -7.0460    3.9070 C.3    402  K36402      0.0000
     16 C14       -23.2390   -6.9380    4.0310 C.3    402  K36402      0.0000
     17 C15       -23.9380   -8.2670    4.3820 C.3    402  K36402      0.0000
     18 C16       -23.6840   -5.8560    5.0340 C.3    402  K36402      0.0000
     19 N19       -18.7220   -5.5690    4.7360 N.am   402  K36402      0.0000
     20 C20       -17.3390   -5.7070    4.8510 C.3    402  K36402      0.0000
     21 C21       -17.0540   -6.6000    6.1280 C.3    402  K36402      0.0000
     22 O22       -15.6760   -6.6310    6.2150 O.3    402  K36402      0.0000
     23 C24       -16.5960   -4.2320    4.9580 C.3    402  K36402      0.0000
     24 C25       -16.7440   -3.3690    3.6730 C.3    402  K36402      0.0000
     25 C26       -15.9570   -4.0140    2.5200 C.3    402  K36402      0.0000
     26 C27       -15.0960   -2.9300    1.8840 C.3    402  K36402      0.0000
     27 N28       -15.2020   -1.7750    2.7850 N.am   402  K36402      0.0000
     28 C29       -16.1150   -1.9800    3.8080 C.2    402  K36402      0.0000
     29 O30       -16.3350   -1.1340    4.6520 O.2    402  K36402      0.0000
     30 H         -20.1885   -1.7781    0.5250 H      402  K36402      0.0000
     31 H         -20.8556   -2.1938   -1.0633 H      402  K36402      0.0000
     32 H         -18.8271   -4.9678   -0.1164 H      402  K36402      0.0000
     33 H         -16.5712   -5.4849   -0.9329 H      402  K36402      0.0000
     34 H         -15.1849   -3.7601   -2.1126 H      402  K36402      0.0000
     35 H         -16.1441   -1.4681   -2.4038 H      402  K36402      0.0000
     36 H         -18.4090   -0.9261   -1.5578 H      402  K36402      0.0000
     37 H         -21.9881   -5.7980    1.5692 H      402  K36402      0.0000
     38 H         -21.2720   -4.9369    4.2750 H      402  K36402      0.0000
     39 H         -21.3136   -7.4083    4.8774 H      402  K36402      0.0000
     40 H         -21.4683   -7.8238    3.1513 H      402  K36402      0.0000
     41 H         -23.6335   -6.6319    3.0302 H      402  K36402      0.0000
     42 H         -25.0464   -8.1655    4.3845 H      402  K36402      0.0000
     43 H         -23.6348   -8.6365    5.3871 H      402  K36402      0.0000
     44 H         -23.6864   -9.0649    3.6478 H      402  K36402      0.0000
     45 H         -24.7903   -5.8404    5.1547 H      402  K36402      0.0000
     46 H         -23.3935   -4.8329    4.7099 H      402  K36402      0.0000
     47 H         -23.2469   -6.0253    6.0435 H      402  K36402      0.0000
     48 H         -19.2407   -5.1718    5.5315 H      402  K36402      0.0000
     49 H         -16.9036   -6.2373    3.9733 H      402  K36402      0.0000
     50 H         -17.4792   -7.6212    6.0233 H      402  K36402      0.0000
     51 H         -17.4741   -6.1320    7.0428 H      402  K36402      0.0000
     52 H         -15.3422   -7.3234    5.6595 H      402  K36402      0.0000
     53 H         -15.5156   -4.3703    5.1890 H      402  K36402      0.0000
     54 H         -17.0377   -3.6834    5.8217 H      402  K36402      0.0000
     55 H         -17.8161   -3.2487    3.4018 H      402  K36402      0.0000
     56 H         -16.6452   -4.4735    1.7765 H      402  K36402      0.0000
     57 H         -15.2970   -4.8286    2.8954 H      402  K36402      0.0000
     58 H         -15.4761   -2.6735    0.8703 H      402  K36402      0.0000
     59 H         -14.0421   -3.2706    1.7709 H      402  K36402      0.0000
     60 H         -14.6732   -0.8989    2.6898 H      402  K36402      0.0000
@<TRIPOS>BOND
     1     1     2    1
     2     1     5    1
     3     1    30    1
     4     1    31    1
     5     2     3    1
     6     3     4    2
     7     3    11    1
     8     5     6   ar
     9     5    10   ar
    10     6     7   ar
    11     6    32    1
    12     7     8   ar
    13     7    33    1
    14     8     9   ar
    15     8    34    1
    16     9    10   ar
    17     9    35    1
    18    10    36    1
    19    11    12    1
    20    11    37    1
    21    12    13    1
    22    12    15    1
    23    12    38    1
    24    13    14    2
    25    13    19    1
    26    15    16    1
    27    15    39    1
    28    15    40    1
    29    16    17    1
    30    16    18    1
    31    16    41    1
    32    17    42    1
    33    17    43    1
    34    17    44    1
    35    18    45    1
    36    18    46    1
    37    18    47    1
    38    19    20    1
    39    19    48    1
    40    20    21    1
    41    20    23    1
    42    20    49    1
    43    21    22    1
    44    21    50    1
    45    21    51    1
    46    22    52    1
    47    23    24    1
    48    23    53    1
    49    23    54    1
    50    24    25    1
    51    24    28    1
    52    24    55    1
    53    25    26    1
    54    25    56    1
    55    25    57    1
    56    26    27    1
    57    26    58    1
    58    26    59    1
    59    27    28    1
    60    27    60    1
    61    28    29    2

