TTT_1_A_501
  -ISIS-            3D

 43 45  0  0  0  0  0  0  0  0  1 V2000
   49.8010   31.2130    0.1780 C   0  0  0  0  0
   49.6100   32.6790    0.2630 C   0  0  0  0  0
   51.7280   28.1850   -1.1670 C   0  0  0  0  0
   54.2190   29.1740   -0.2190 C   0  0  0  0  0
   48.3660   33.1970    0.8610 C   0  0  0  0  0
   52.9770   28.0050   -1.9480 C   0  0  0  0  0
   54.1610   28.5320   -1.4400 C   0  0  0  0  0
   50.5130   33.5700   -0.3040 C   0  0  0  0  0
   50.5630   27.6580   -1.6770 C   0  0  0  0  0
   47.3440   32.2710    1.4510 C   0  0  0  0  0
   50.2150   34.9480   -0.2210 C   0  0  0  0  0
   50.5760   26.9860   -2.9140 C   0  0  0  0  0
   49.0650   35.4670    0.3890 C   0  0  0  0  0
   51.7540   26.8390   -3.7010 C   0  0  0  0  0
   49.2820   30.6620   -0.7900 O   0  0  0  0  0
   48.1500   34.5750    0.9130 C   0  0  0  0  0
   51.0650   35.8330   -0.7390 N   0  0  0  0  0
   50.4890   30.5770    1.1260 N   0  0  0  0  0
   50.6800   29.1610    1.0540 C   0  0  0  0  0
   50.8570   28.5800    2.4600 C   0  0  0  0  0
   51.8320   28.9060    0.1290 C   0  0  0  0  0
   52.9710   27.3500   -3.1950 C   0  0  0  0  0
   53.0730   29.3720    0.5360 C   0  0  0  0  0
   55.1880   29.5503    0.1525 H   0  0  0  0  0
   55.0934   28.4248   -2.0214 H   0  0  0  0  0
   51.4262   33.2039   -0.7995 H   0  0  0  0  0
   49.6056   27.7474   -1.1416 H   0  0  0  0  0
   46.4736   32.8146    1.8787 H   0  0  0  0  0
   47.7832   31.6607    2.2709 H   0  0  0  0  0
   46.9459   31.5712    0.6835 H   0  0  0  0  0
   49.6300   26.5669   -3.2993 H   0  0  0  0  0
   48.8787   36.5520    0.4454 H   0  0  0  0  0
   51.7187   26.3278   -4.6774 H   0  0  0  0  0
   47.2318   34.9691    1.3808 H   0  0  0  0  0
   50.8837   31.1260    1.9013 H   0  0  0  0  0
   49.7656   28.6778    0.6425 H   0  0  0  0  0
   51.0233   27.4798    2.4229 H   0  0  0  0  0
   49.9520   28.7517    3.0856 H   0  0  0  0  0
   51.7179   29.0241    3.0060 H   0  0  0  0  0
   53.8981   27.2345   -3.7809 H   0  0  0  0  0
   53.1769   29.9158    1.4901 H   0  0  0  0  0
   50.8284   36.8301   -0.6544 H   0  0  0  0  0
   51.9053   35.4533   -1.1941 H   0  0  0  0  0
  1  2  1  0  0  0
  1 15  2  0  0  0
  1 18  1  0  0  0
  2  5  1  0  0  0
  2  8  1  0  0  0
  3  6  1  0  0  0
  3  9  1  0  0  0
  3 21  1  0  0  0
  4  7  2  0  0  0
  4 23  1  0  0  0
  4 24  1  0  0  0
  5 10  1  0  0  0
  5 16  1  0  0  0
  6  7  1  0  0  0
  6 22  1  0  0  0
  7 25  1  0  0  0
  8 11  2  0  0  0
  8 26  1  0  0  0
  9 12  2  0  0  0
  9 27  1  0  0  0
 10 28  1  0  0  0
 10 29  1  0  0  0
 10 30  1  0  0  0
 11 13  1  0  0  0
 11 17  1  0  0  0
 12 14  1  0  0  0
 12 31  1  0  0  0
 13 16  2  0  0  0
 13 32  1  0  0  0
 14 22  2  0  0  0
 14 33  1  0  0  0
 16 34  1  0  0  0
 17 42  1  0  0  0
 17 43  1  0  0  0
 18 19  1  0  0  0
 18 35  1  0  0  0
 19 20  1  0  0  0
 19 21  1  0  0  0
 19 36  1  0  0  0
 20 37  1  0  0  0
 20 38  1  0  0  0
 20 39  1  0  0  0
 21 23  2  0  0  0
 22 40  1  0  0  0
 23 41  1  0  0  0
M  END
$$$$
