@<TRIPOS>MOLECULE
TTT_1_A_501
 43 45 0 0 0
SMALL
NO_CHARGES

@<TRIPOS>ATOM
      1 C1         49.8010   31.2130    0.1780 C.2    501  TTT501      0.0000
      2 C3         49.6100   32.6790    0.2630 C.ar   501  TTT501      0.0000
      3 C8         51.7280   28.1850   -1.1670 C.ar   501  TTT501      0.0000
      4 C9         54.2190   29.1740   -0.2190 C.ar   501  TTT501      0.0000
      5 C10        48.3660   33.1970    0.8610 C.ar   501  TTT501      0.0000
      6 C11        52.9770   28.0050   -1.9480 C.ar   501  TTT501      0.0000
      7 C12        54.1610   28.5320   -1.4400 C.ar   501  TTT501      0.0000
      8 C13        50.5130   33.5700   -0.3040 C.ar   501  TTT501      0.0000
      9 C14        50.5630   27.6580   -1.6770 C.ar   501  TTT501      0.0000
     10 C16        47.3440   32.2710    1.4510 C.3    501  TTT501      0.0000
     11 C19        50.2150   34.9480   -0.2210 C.ar   501  TTT501      0.0000
     12 C20        50.5760   26.9860   -2.9140 C.ar   501  TTT501      0.0000
     13 C21        49.0650   35.4670    0.3890 C.ar   501  TTT501      0.0000
     14 C22        51.7540   26.8390   -3.7010 C.ar   501  TTT501      0.0000
     15 O7         49.2820   30.6620   -0.7900 O.2    501  TTT501      0.0000
     16 C17        48.1500   34.5750    0.9130 C.ar   501  TTT501      0.0000
     17 N01        51.0650   35.8330   -0.7390 N.pl3  501  TTT501      0.0000
     18 N2         50.4890   30.5770    1.1260 N.am   501  TTT501      0.0000
     19 C6         50.6800   29.1610    1.0540 C.3    501  TTT501      0.0000
     20 C01        50.8570   28.5800    2.4600 C.3    501  TTT501      0.0000
     21 C5         51.8320   28.9060    0.1290 C.ar   501  TTT501      0.0000
     22 C18        52.9710   27.3500   -3.1950 C.ar   501  TTT501      0.0000
     23 C4         53.0730   29.3720    0.5360 C.ar   501  TTT501      0.0000
     24 H          55.1880   29.5503    0.1525 H      501  TTT501      0.0000
     25 H          55.0934   28.4248   -2.0214 H      501  TTT501      0.0000
     26 H          51.4262   33.2039   -0.7995 H      501  TTT501      0.0000
     27 H          49.6056   27.7474   -1.1416 H      501  TTT501      0.0000
     28 H          46.4736   32.8146    1.8787 H      501  TTT501      0.0000
     29 H          47.7832   31.6607    2.2709 H      501  TTT501      0.0000
     30 H          46.9459   31.5712    0.6835 H      501  TTT501      0.0000
     31 H          49.6300   26.5669   -3.2993 H      501  TTT501      0.0000
     32 H          48.8787   36.5520    0.4454 H      501  TTT501      0.0000
     33 H          51.7187   26.3278   -4.6774 H      501  TTT501      0.0000
     34 H          47.2318   34.9691    1.3808 H      501  TTT501      0.0000
     35 H          50.8837   31.1260    1.9013 H      501  TTT501      0.0000
     36 H          49.7656   28.6778    0.6425 H      501  TTT501      0.0000
     37 H          51.0233   27.4798    2.4229 H      501  TTT501      0.0000
     38 H          49.9520   28.7517    3.0856 H      501  TTT501      0.0000
     39 H          51.7179   29.0241    3.0060 H      501  TTT501      0.0000
     40 H          53.8981   27.2345   -3.7809 H      501  TTT501      0.0000
     41 H          53.1769   29.9158    1.4901 H      501  TTT501      0.0000
     42 H          50.8284   36.8301   -0.6544 H      501  TTT501      0.0000
     43 H          51.9053   35.4533   -1.1941 H      501  TTT501      0.0000
@<TRIPOS>BOND
     1     1     2    1
     2     1    15    2
     3     1    18    1
     4     2     5   ar
     5     2     8   ar
     6     3     6   ar
     7     3     9   ar
     8     3    21   ar
     9     4     7   ar
    10     4    23   ar
    11     4    24    1
    12     5    10    1
    13     5    16   ar
    14     6     7   ar
    15     6    22   ar
    16     7    25    1
    17     8    11   ar
    18     8    26    1
    19     9    12   ar
    20     9    27    1
    21    10    28    1
    22    10    29    1
    23    10    30    1
    24    11    13   ar
    25    11    17    1
    26    12    14   ar
    27    12    31    1
    28    13    16   ar
    29    13    32    1
    30    14    22   ar
    31    14    33    1
    32    16    34    1
    33    17    42    1
    34    17    43    1
    35    18    19    1
    36    18    35    1
    37    19    20    1
    38    19    21    1
    39    19    36    1
    40    20    37    1
    41    20    38    1
    42    20    39    1
    43    21    23   ar
    44    22    40    1
    45    23    41    1

