@<TRIPOS>MOLECULE
DMS_2_A_403
 10 9 0 0 0
SMALL
NO_CHARGES

@<TRIPOS>ATOM
      1 S          -2.4810  -18.7030   -8.0850 S.o    403  DMS403      0.0000
      2 O          -3.7030  -18.8370   -9.0240 O.2    403  DMS403      0.0000
      3 C1         -1.1150  -18.2830   -9.1480 C.3    403  DMS403      0.0000
      4 C2         -1.9820  -20.3560   -7.7520 C.3    403  DMS403      0.0000
      5 H          -0.1646  -18.3324   -8.5782 H      403  DMS403      0.0000
      6 H          -1.2515  -17.2490   -9.5257 H      403  DMS403      0.0000
      7 H          -1.0665  -18.9780  -10.0113 H      403  DMS403      0.0000
      8 H          -1.0098  -20.3579   -7.2180 H      403  DMS403      0.0000
      9 H          -1.8861  -20.9330   -8.6947 H      403  DMS403      0.0000
     10 H          -2.7413  -20.8454   -7.1083 H      403  DMS403      0.0000
@<TRIPOS>BOND
     1     1     2    2
     2     1     3    1
     3     1     4    1
     4     3     5    1
     5     3     6    1
     6     3     7    1
     7     4     8    1
     8     4     9    1
     9     4    10    1

