@<TRIPOS>MOLECULE
DMS_2_A_401
 10 9 0 0 0
SMALL
NO_CHARGES

@<TRIPOS>ATOM
      1 S          -7.0430  -27.9910  -21.6550 S.o    401  DMS401      0.0000
      2 O          -7.6150  -26.9060  -22.4910 O.2    401  DMS401      0.0000
      3 C1         -5.7310  -28.7000  -22.6200 C.3    401  DMS401      0.0000
      4 C2         -6.0460  -27.2170  -20.4250 C.3    401  DMS401      0.0000
      5 H          -5.1656  -29.4313  -22.0070 H      401  DMS401      0.0000
      6 H          -5.0422  -27.9075  -22.9784 H      401  DMS401      0.0000
      7 H          -6.1629  -29.2260  -23.4959 H      401  DMS401      0.0000
      8 H          -5.4771  -27.9848  -19.8619 H      401  DMS401      0.0000
      9 H          -6.6979  -26.6657  -19.7169 H      401  DMS401      0.0000
     10 H          -5.3376  -26.5025  -20.8925 H      401  DMS401      0.0000
@<TRIPOS>BOND
     1     1     2    2
     2     1     3    1
     3     1     4    1
     4     3     5    1
     5     3     6    1
     6     3     7    1
     7     4     8    1
     8     4     9    1
     9     4    10    1

