DMS_2_A_401
  -ISIS-            3D

 10  9  0  0  0  0  0  0  0  0  1 V2000
   -7.0430  -27.9910  -21.6550 S   0  0  0  0  0
   -7.6150  -26.9060  -22.4910 O   0  0  0  0  0
   -5.7310  -28.7000  -22.6200 C   0  0  0  0  0
   -6.0460  -27.2170  -20.4250 C   0  0  0  0  0
   -5.1656  -29.4313  -22.0070 H   0  0  0  0  0
   -5.0422  -27.9075  -22.9784 H   0  0  0  0  0
   -6.1629  -29.2260  -23.4959 H   0  0  0  0  0
   -5.4771  -27.9848  -19.8619 H   0  0  0  0  0
   -6.6979  -26.6657  -19.7169 H   0  0  0  0  0
   -5.3376  -26.5025  -20.8925 H   0  0  0  0  0
  1  2  2  0  0  0
  1  3  1  0  0  0
  1  4  1  0  0  0
  3  5  1  0  0  0
  3  6  1  0  0  0
  3  7  1  0  0  0
  4  8  1  0  0  0
  4  9  1  0  0  0
  4 10  1  0  0  0
M  END
$$$$
