DMS_2_A_402
  -ISIS-            3D

 10  9  0  0  0  0  0  0  0  0  1 V2000
   -6.1210   -1.0210    6.2510 S   0  0  0  0  0
   -7.0580   -0.7980    7.3870 O   0  0  0  0  0
   -7.0640   -0.8960    4.7310 C   0  0  0  0  0
   -5.7760   -2.7610    6.1800 C   0  0  0  0  0
   -6.4241   -1.1736    3.8686 H   0  0  0  0  0
   -7.4096    0.1499    4.6009 H   0  0  0  0  0
   -7.9463   -1.5673    4.7706 H   0  0  0  0  0
   -5.1732   -2.9887    5.2772 H   0  0  0  0  0
   -6.7214   -3.3406    6.1497 H   0  0  0  0  0
   -5.1993   -3.0574    7.0800 H   0  0  0  0  0
  1  2  2  0  0  0
  1  3  1  0  0  0
  1  4  1  0  0  0
  3  5  1  0  0  0
  3  6  1  0  0  0
  3  7  1  0  0  0
  4  8  1  0  0  0
  4  9  1  0  0  0
  4 10  1  0  0  0
M  END
$$$$
