DMS_2_A_403
  -ISIS-            3D

 10  9  0  0  0  0  0  0  0  0  1 V2000
   -2.4810  -18.7030   -8.0850 S   0  0  0  0  0
   -3.7030  -18.8370   -9.0240 O   0  0  0  0  0
   -1.1150  -18.2830   -9.1480 C   0  0  0  0  0
   -1.9820  -20.3560   -7.7520 C   0  0  0  0  0
   -0.1646  -18.3324   -8.5782 H   0  0  0  0  0
   -1.2515  -17.2490   -9.5257 H   0  0  0  0  0
   -1.0665  -18.9780  -10.0113 H   0  0  0  0  0
   -1.0098  -20.3579   -7.2180 H   0  0  0  0  0
   -1.8861  -20.9330   -8.6947 H   0  0  0  0  0
   -2.7413  -20.8454   -7.1083 H   0  0  0  0  0
  1  2  2  0  0  0
  1  3  1  0  0  0
  1  4  1  0  0  0
  3  5  1  0  0  0
  3  6  1  0  0  0
  3  7  1  0  0  0
  4  8  1  0  0  0
  4  9  1  0  0  0
  4 10  1  0  0  0
M  END
$$$$
