@<TRIPOS>MOLECULE
DMS_2_A_403
 10 9 0 0 0
SMALL
NO_CHARGES

@<TRIPOS>ATOM
      1 S          -2.3120  -19.0060   -8.2640 S.o    403  DMS403      0.0000
      2 O          -3.5340  -18.6880   -9.0790 O.2    403  DMS403      0.0000
      3 C1         -0.9770  -18.1050   -9.0090 C.3    403  DMS403      0.0000
      4 C2         -1.8070  -20.6350   -8.7550 C.3    403  DMS403      0.0000
      5 H          -0.0148  -18.4071   -8.5470 H      403  DMS403      0.0000
      6 H          -1.1290  -17.0191   -8.8409 H      403  DMS403      0.0000
      7 H          -0.9402  -18.2994  -10.1005 H      403  DMS403      0.0000
      8 H          -0.8254  -20.8783   -8.2992 H      403  DMS403      0.0000
      9 H          -1.7278  -20.6994   -9.8596 H      403  DMS403      0.0000
     10 H          -2.5571  -21.3727   -8.4034 H      403  DMS403      0.0000
@<TRIPOS>BOND
     1     1     2    2
     2     1     3    1
     3     1     4    1
     4     3     5    1
     5     3     6    1
     6     3     7    1
     7     4     8    1
     8     4     9    1
     9     4    10    1

