DMS_2_A_1005
  -ISIS-            3D

 10  9  0  0  0  0  0  0  0  0  1 V2000
  -21.0810   14.1120   -8.1520 S   0  0  0  0  0
  -22.3210   14.8720   -7.9530 O   0  0  0  0  0
  -21.4710   12.9290   -9.4090 C   0  0  0  0  0
  -20.9790   13.0190   -6.7620 C   0  0  0  0  0
  -20.6369   12.2057   -9.5155 H   0  0  0  0  0
  -21.6155   13.4531  -10.3758 H   0  0  0  0  0
  -22.4014   12.3822   -9.1515 H   0  0  0  0  0
  -20.1522   12.2953   -6.9136 H   0  0  0  0  0
  -21.9325   12.4667   -6.6327 H   0  0  0  0  0
  -20.7752   13.6083   -5.8447 H   0  0  0  0  0
  1  2  2  0  0  0
  1  3  1  0  0  0
  1  4  1  0  0  0
  3  5  1  0  0  0
  3  6  1  0  0  0
  3  7  1  0  0  0
  4  8  1  0  0  0
  4  9  1  0  0  0
  4 10  1  0  0  0
M  END
$$$$
