DMS_1_A_1003
  -ISIS-            3D

 10  9  0  0  0  0  0  0  0  0  1 V2000
    6.1160   -1.1660   -6.2810 S   0  0  0  0  0
    6.7240   -1.1460   -7.5980 O   0  0  0  0  0
    7.4190   -0.9940   -5.1180 C   0  0  0  0  0
    5.6900   -2.8560   -6.0170 C   0  0  0  0  0
    7.0305   -1.1530   -4.0913 H   0  0  0  0  0
    7.8416    0.0294   -5.1854 H   0  0  0  0  0
    8.2226   -1.7304   -5.3242 H   0  0  0  0  0
    5.3327   -2.9950   -4.9762 H   0  0  0  0  0
    6.5689   -3.5096   -6.1933 H   0  0  0  0  0
    4.8780   -3.1459   -6.7149 H   0  0  0  0  0
  1  2  2  0  0  0
  1  3  1  0  0  0
  1  4  1  0  0  0
  3  5  1  0  0  0
  3  6  1  0  0  0
  3  7  1  0  0  0
  4  8  1  0  0  0
  4  9  1  0  0  0
  4 10  1  0  0  0
M  END
$$$$
