@<TRIPOS>MOLECULE
DMS_1_A_1004
 10 9 0 0 0
SMALL
NO_CHARGES

@<TRIPOS>ATOM
      1 S           2.2590  -18.8940    8.3920 S.o   1004  DMS1004      0.0000
      2 O           3.5250  -18.9860    9.1230 O.2   1004  DMS1004      0.0000
      3 C1          1.1190  -18.1650    9.5370 C.3   1004  DMS1004      0.0000
      4 C2          1.6210  -20.5450    8.4680 C.3   1004  DMS1004      0.0000
      5 H           0.0876  -18.2292    9.1340 H     1004  DMS1004      0.0000
      6 H           1.3787  -17.0963    9.6820 H     1004  DMS1004      0.0000
      7 H           1.1651  -18.6827   10.5171 H     1004  DMS1004      0.0000
      8 H           0.5768  -20.5627    8.0942 H     1004  DMS1004      0.0000
      9 H           1.6458  -20.9266    9.5094 H     1004  DMS1004      0.0000
     10 H           2.2390  -21.2070    7.8273 H     1004  DMS1004      0.0000
@<TRIPOS>BOND
     1     1     2    2
     2     1     3    1
     3     1     4    1
     4     3     5    1
     5     3     6    1
     6     3     7    1
     7     4     8    1
     8     4     9    1
     9     4    10    1

