DMS_1_A_402
  -ISIS-            3D

 10  9  0  0  0  0  0  0  0  0  1 V2000
    6.0000   -1.0620   -6.3120 S   0  0  0  0  0
    6.7530   -0.8220   -7.5940 O   0  0  0  0  0
    7.1990   -1.0350   -5.0120 C   0  0  0  0  0
    5.6330   -2.7920   -6.2680 C   0  0  0  0  0
    6.7268   -1.3433   -4.0568 H   0  0  0  0  0
    7.5938   -0.0046   -4.8987 H   0  0  0  0  0
    8.0402   -1.7192   -5.2461 H   0  0  0  0  0
    5.1977   -3.0603   -5.2837 H   0  0  0  0  0
    6.5527   -3.3880   -6.4401 H   0  0  0  0  0
    4.8955   -3.0306   -7.0615 H   0  0  0  0  0
  1  2  2  0  0  0
  1  3  1  0  0  0
  1  4  1  0  0  0
  3  5  1  0  0  0
  3  6  1  0  0  0
  3  7  1  0  0  0
  4  8  1  0  0  0
  4  9  1  0  0  0
  4 10  1  0  0  0
M  END
$$$$
