@<TRIPOS>MOLECULE
DMS_1_A_401
 10 9 0 0 0
SMALL
NO_CHARGES

@<TRIPOS>ATOM
      1 S           7.2090  -28.0700   21.5090 S.o    401  DMS401      0.0000
      2 O           7.9180  -26.9960   22.2850 O.2    401  DMS401      0.0000
      3 C1          5.9220  -28.6870   22.5470 C.3    401  DMS401      0.0000
      4 C2          6.1700  -27.2400   20.3380 C.3    401  DMS401      0.0000
      5 H           5.2773  -29.3857   21.9755 H      401  DMS401      0.0000
      6 H           5.3054  -27.8524   22.9398 H      401  DMS401      0.0000
      7 H           6.3708  -29.2345   23.4008 H      401  DMS401      0.0000
      8 H           5.5177  -27.9753   19.8240 H      401  DMS401      0.0000
      9 H           6.8033  -26.7347   19.5806 H      401  DMS401      0.0000
     10 H           5.5419  -26.4798   20.8466 H      401  DMS401      0.0000
@<TRIPOS>BOND
     1     1     2    2
     2     1     3    1
     3     1     4    1
     4     3     5    1
     5     3     6    1
     6     3     7    1
     7     4     8    1
     8     4     9    1
     9     4    10    1

