@<TRIPOS>MOLECULE
DMS_2_A_403
 10 9 0 0 0
SMALL
NO_CHARGES

@<TRIPOS>ATOM
      1 S          -2.5150  -19.3010   -8.1450 S.o    403  DMS403      0.0000
      2 O          -3.8030  -18.8160   -8.7760 O.2    403  DMS403      0.0000
      3 C1         -1.2070  -18.3820   -8.9290 C.3    403  DMS403      0.0000
      4 C2         -2.1520  -20.8870   -8.8720 C.3    403  DMS403      0.0000
      5 H          -0.2229  -18.7841   -8.6129 H      403  DMS403      0.0000
      6 H          -1.2738  -17.3177   -8.6233 H      403  DMS403      0.0000
      7 H          -1.2966  -18.4472  -10.0329 H      403  DMS403      0.0000
      8 H          -1.1445  -21.2247   -8.5542 H      403  DMS403      0.0000
      9 H          -2.1893  -20.8221   -9.9789 H      403  DMS403      0.0000
     10 H          -2.9032  -21.6270   -8.5279 H      403  DMS403      0.0000
@<TRIPOS>BOND
     1     1     2    2
     2     1     3    1
     3     1     4    1
     4     3     5    1
     5     3     6    1
     6     3     7    1
     7     4     8    1
     8     4     9    1
     9     4    10    1

