DMS_1_A_403
  -ISIS-            3D

 10  9  0  0  0  0  0  0  0  0  1 V2000
    2.5150  -19.3010    8.1450 S   0  0  0  0  0
    3.8030  -18.8160    8.7760 O   0  0  0  0  0
    1.2070  -18.3820    8.9290 C   0  0  0  0  0
    2.1520  -20.8870    8.8720 C   0  0  0  0  0
    0.2229  -18.7841    8.6129 H   0  0  0  0  0
    1.2738  -17.3177    8.6233 H   0  0  0  0  0
    1.2966  -18.4472   10.0329 H   0  0  0  0  0
    1.1445  -21.2247    8.5542 H   0  0  0  0  0
    2.1893  -20.8221    9.9789 H   0  0  0  0  0
    2.9032  -21.6270    8.5279 H   0  0  0  0  0
  1  2  2  0  0  0
  1  3  1  0  0  0
  1  4  1  0  0  0
  3  5  1  0  0  0
  3  6  1  0  0  0
  3  7  1  0  0  0
  4  8  1  0  0  0
  4  9  1  0  0  0
  4 10  1  0  0  0
M  END
$$$$
