@<TRIPOS>MOLECULE
DMS_1_A_1002
 10 9 0 0 0
SMALL
NO_CHARGES

@<TRIPOS>ATOM
      1 S           7.0490  -28.1270   21.3870 S.o   1002  DMS1002      0.0000
      2 O           7.6830  -27.0970   22.1830 O.2   1002  DMS1002      0.0000
      3 C1          5.7850  -28.7840   22.4360 C.3   1002  DMS1002      0.0000
      4 C2          6.0560  -27.2860   20.1990 C.3   1002  DMS1002      0.0000
      5 H           5.1505  -29.4895   21.8616 H     1002  DMS1002      0.0000
      6 H           5.1527  -27.9662   22.8391 H     1002  DMS1002      0.0000
      7 H           6.2530  -29.3299   23.2807 H     1002  DMS1002      0.0000
      8 H           5.4229  -28.0161   19.6545 H     1002  DMS1002      0.0000
      9 H           6.7120  -26.7676   19.4701 H     1002  DMS1002      0.0000
     10 H           5.4068  -26.5371   20.6976 H     1002  DMS1002      0.0000
@<TRIPOS>BOND
     1     1     2    2
     2     1     3    1
     3     1     4    1
     4     3     5    1
     5     3     6    1
     6     3     7    1
     7     4     8    1
     8     4     9    1
     9     4    10    1

