DMS_2_A_1005
  -ISIS-            3D

 10  9  0  0  0  0  0  0  0  0  1 V2000
  -20.7360   14.4500   -7.6020 S   0  0  0  0  0
  -21.9690   15.2250   -7.7730 O   0  0  0  0  0
  -20.7660   13.2670   -8.9010 C   0  0  0  0  0
  -21.1160   13.3340   -6.2920 C   0  0  0  0  0
  -19.9647   12.5155   -8.7473 H   0  0  0  0  0
  -20.5887   13.7800   -9.8684 H   0  0  0  0  0
  -21.7487   12.7536   -8.9433 H   0  0  0  0  0
  -20.3100   12.5783   -6.1933 H   0  0  0  0  0
  -22.0813   12.8202   -6.4804 H   0  0  0  0  0
  -21.1904   13.8981   -5.3398 H   0  0  0  0  0
  1  2  2  0  0  0
  1  3  1  0  0  0
  1  4  1  0  0  0
  3  5  1  0  0  0
  3  6  1  0  0  0
  3  7  1  0  0  0
  4  8  1  0  0  0
  4  9  1  0  0  0
  4 10  1  0  0  0
M  END
$$$$
