@<TRIPOS>MOLECULE
DMS_2_A_1004
 10 9 0 0 0
SMALL
NO_CHARGES

@<TRIPOS>ATOM
      1 S          -2.3110  -19.0820   -8.2180 S.o   1004  DMS1004      0.0000
      2 O          -3.6170  -18.7420   -8.8250 O.2   1004  DMS1004      0.0000
      3 C1         -1.1730  -17.9800   -9.0020 C.3   1004  DMS1004      0.0000
      4 C2         -1.8430  -20.5640   -9.0780 C.3   1004  DMS1004      0.0000
      5 H          -0.1326  -18.2799   -8.7613 H     1004  DMS1004      0.0000
      6 H          -1.3423  -16.9495   -8.6281 H     1004  DMS1004      0.0000
      7 H          -1.3137  -17.9914  -10.1026 H     1004  DMS1004      0.0000
      8 H          -0.7901  -20.8192   -8.8405 H     1004  DMS1004      0.0000
      9 H          -1.9508  -20.4293  -10.1741 H     1004  DMS1004      0.0000
     10 H          -2.4951  -21.3998   -8.7513 H     1004  DMS1004      0.0000
@<TRIPOS>BOND
     1     1     2    2
     2     1     3    1
     3     1     4    1
     4     3     5    1
     5     3     6    1
     6     3     7    1
     7     4     8    1
     8     4     9    1
     9     4    10    1

