@<TRIPOS>MOLECULE
DMS_1_A_1005
 10 9 0 0 0
SMALL
NO_CHARGES

@<TRIPOS>ATOM
      1 S          20.7360   14.4500    7.6020 S.o   1005  DMS1005      0.0000
      2 O          21.9690   15.2250    7.7730 O.2   1005  DMS1005      0.0000
      3 C1         20.7660   13.2670    8.9010 C.3   1005  DMS1005      0.0000
      4 C2         21.1160   13.3340    6.2920 C.3   1005  DMS1005      0.0000
      5 H          19.9647   12.5155    8.7473 H     1005  DMS1005      0.0000
      6 H          20.5887   13.7800    9.8684 H     1005  DMS1005      0.0000
      7 H          21.7487   12.7536    8.9433 H     1005  DMS1005      0.0000
      8 H          20.3100   12.5783    6.1933 H     1005  DMS1005      0.0000
      9 H          22.0813   12.8202    6.4804 H     1005  DMS1005      0.0000
     10 H          21.1904   13.8981    5.3398 H     1005  DMS1005      0.0000
@<TRIPOS>BOND
     1     1     2    2
     2     1     3    1
     3     1     4    1
     4     3     5    1
     5     3     6    1
     6     3     7    1
     7     4     8    1
     8     4     9    1
     9     4    10    1

