@<TRIPOS>MOLECULE
DMS_2_A_401
 10 9 0 0 0
SMALL
NO_CHARGES

@<TRIPOS>ATOM
      1 S          -7.0240  -28.0250  -21.5620 S.o    401  DMS401      0.0000
      2 O          -7.6900  -27.0080  -22.3950 O.2    401  DMS401      0.0000
      3 C1         -5.7850  -28.6990  -22.6400 C.3    401  DMS401      0.0000
      4 C2         -6.0050  -27.1690  -20.4080 C.3    401  DMS401      0.0000
      5 H          -5.1334  -29.3941  -22.0721 H      401  DMS401      0.0000
      6 H          -5.1661  -27.8861  -23.0734 H      401  DMS401      0.0000
      7 H          -6.2763  -29.2590  -23.4617 H      401  DMS401      0.0000
      8 H          -5.3623  -27.8925  -19.8660 H      401  DMS401      0.0000
      9 H          -6.6451  -26.6383  -19.6740 H      401  DMS401      0.0000
     10 H          -5.3653  -26.4292  -20.9317 H      401  DMS401      0.0000
@<TRIPOS>BOND
     1     1     2    2
     2     1     3    1
     3     1     4    1
     4     3     5    1
     5     3     6    1
     6     3     7    1
     7     4     8    1
     8     4     9    1
     9     4    10    1

