DMS_2_A_401
  -ISIS-            3D

 10  9  0  0  0  0  0  0  0  0  1 V2000
   -7.0240  -28.0250  -21.5620 S   0  0  0  0  0
   -7.6900  -27.0080  -22.3950 O   0  0  0  0  0
   -5.7850  -28.6990  -22.6400 C   0  0  0  0  0
   -6.0050  -27.1690  -20.4080 C   0  0  0  0  0
   -5.1334  -29.3941  -22.0721 H   0  0  0  0  0
   -5.1661  -27.8861  -23.0734 H   0  0  0  0  0
   -6.2763  -29.2590  -23.4617 H   0  0  0  0  0
   -5.3623  -27.8925  -19.8660 H   0  0  0  0  0
   -6.6451  -26.6383  -19.6740 H   0  0  0  0  0
   -5.3653  -26.4292  -20.9317 H   0  0  0  0  0
  1  2  2  0  0  0
  1  3  1  0  0  0
  1  4  1  0  0  0
  3  5  1  0  0  0
  3  6  1  0  0  0
  3  7  1  0  0  0
  4  8  1  0  0  0
  4  9  1  0  0  0
  4 10  1  0  0  0
M  END
$$$$
