@<TRIPOS>MOLECULE
DMS_2_A_403
 10 9 0 0 0
SMALL
NO_CHARGES

@<TRIPOS>ATOM
      1 S          -2.4920  -18.9020   -8.0820 S.o    403  DMS403      0.0000
      2 O          -3.7270  -18.7070   -8.9210 O.2    403  DMS403      0.0000
      3 C1         -1.2020  -18.0710   -8.9630 C.3    403  DMS403      0.0000
      4 C2         -1.9840  -20.5050   -8.6520 C.3    403  DMS403      0.0000
      5 H          -0.2118  -18.3752   -8.5661 H      403  DMS403      0.0000
      6 H          -1.3152  -16.9763   -8.8235 H      403  DMS403      0.0000
      7 H          -1.2523  -18.2962  -10.0481 H      403  DMS403      0.0000
      8 H          -0.9663  -20.7371   -8.2763 H      403  DMS403      0.0000
      9 H          -1.9891  -20.5551   -9.7604 H      403  DMS403      0.0000
     10 H          -2.6849  -21.2699   -8.2588 H      403  DMS403      0.0000
@<TRIPOS>BOND
     1     1     2    2
     2     1     3    1
     3     1     4    1
     4     3     5    1
     5     3     6    1
     6     3     7    1
     7     4     8    1
     8     4     9    1
     9     4    10    1

