9IN_1_B_2001
  -ISIS-            3D

 96 97  0  0  0  0  0  0  0  0  1 V2000
   75.4830  -24.7940   37.1660 C   0  0  0  0  0
   77.1870  -26.2270   37.1310 C   0  0  0  0  0
   76.0990  -26.8720   37.6670 C   0  0  0  0  0
   74.9970  -26.0740   37.7330 O   0  0  0  0  0
   76.6840  -24.8690   36.8340 C   0  0  0  0  0
   77.2080  -23.5090   36.1790 C   0  0  0  0  0
   78.4230  -23.2100   36.0080 O   0  0  0  0  0
   76.2590  -22.7210   36.8610 N   0  0  0  0  0
   76.4380  -21.3200   36.8380 C   0  0  0  0  0
   75.0430  -20.6310   36.8980 C   0  0  0  0  0
   74.8070  -19.1030   36.9100 C   0  0  0  0  0
   74.1500  -21.0800   35.7340 C   0  0  0  0  0
   77.2740  -20.8650   37.9670 C   0  0  0  0  0
   77.1320  -21.3910   39.0970 O   0  0  0  0  0
   78.0110  -20.0090   37.6150 N   0  0  0  0  0
   78.8730  -19.4960   38.6330 C   0  0  0  0  0
   80.2890  -19.7110   38.0820 C   0  0  0  0  0
   81.2790  -19.0980   39.0840 C   0  0  0  0  0
   80.4860  -21.2510   38.1220 C   0  0  0  0  0
   78.7550  -17.9390   38.5740 C   0  0  0  0  0
   79.1160  -17.3050   37.5690 O   0  0  0  0  0
   78.2280  -17.3850   39.7470 N   0  0  0  0  0
   78.0400  -15.8790   39.9610 C   0  0  0  0  0
   77.3770  -15.6100   41.3180 C   0  0  0  0  0
   75.9360  -16.2220   41.4410 C   0  0  0  0  0
   74.9730  -15.6840   40.3450 C   0  0  0  0  0
   75.3260  -15.8980   42.8050 C   0  0  0  0  0
   79.4670  -15.2570   39.8890 C   0  0  0  0  0
   80.4120  -15.8630   40.5410 O   0  0  0  0  0
   79.7100  -14.0920   39.1340 N   0  0  0  0  0
   80.9590  -13.5390   39.0440 C   0  0  0  0  0
   81.0860  -12.0700   39.4730 C   0  0  0  0  0
   81.4710  -13.6310   37.6600 C   0  0  0  0  0
   81.7910  -14.9540   37.0590 C   0  0  0  0  0
   82.9830  -15.7200   37.6410 C   0  0  0  0  0
   83.4930  -16.5550   36.4850 C   0  0  0  0  0
   83.0300  -15.8120   35.3220 N   0  0  0  0  0
   82.0940  -14.9160   35.5780 C   0  0  0  0  0
   81.6010  -14.2200   34.7280 O   0  0  0  0  0
   81.4180  -12.2360   40.9540 C   0  0  0  0  0
   82.3180  -11.2750   41.6900 C   0  0  0  0  0
   82.8600  -10.2750   41.1570 O   0  0  0  0  0
   82.4830  -11.6740   43.0240 O   0  0  0  0  0
   83.3240  -10.8830   43.8540 C   0  0  0  0  0
   83.3160  -11.5790   45.2140 C   0  0  0  0  0
   74.5824  -24.1747   37.1195 H   0  0  0  0  0
   78.1968  -26.6108   36.9509 H   0  0  0  0  0
   75.9416  -27.8841   38.0454 H   0  0  0  0  0
   75.5084  -22.9582   37.5064 H   0  0  0  0  0
   76.8933  -21.0307   35.8593 H   0  0  0  0  0
   74.5561  -21.0021   37.8366 H   0  0  0  0  0
   73.7336  -18.8324   37.0262 H   0  0  0  0  0
   75.1812  -18.6216   35.9789 H   0  0  0  0  0
   75.3488  -18.6263   37.7574 H   0  0  0  0  0
   73.1092  -20.6953   35.8219 H   0  0  0  0  0
   74.0615  -22.1865   35.6714 H   0  0  0  0  0
   74.5472  -20.7353   34.7528 H   0  0  0  0  0
   78.0700  -19.6102   36.6674 H   0  0  0  0  0
   78.7460  -19.8965   39.6624 H   0  0  0  0  0
   80.4512  -19.3183   37.0518 H   0  0  0  0  0
   82.3299  -19.3409   38.8092 H   0  0  0  0  0
   81.1208  -19.4694   40.1211 H   0  0  0  0  0
   81.2175  -17.9903   39.1191 H   0  0  0  0  0
   81.5343  -21.5242   37.8664 H   0  0  0  0  0
   79.8446  -21.7753   37.3838 H   0  0  0  0  0
   80.2735  -21.6872   39.1237 H   0  0  0  0  0
   77.9709  -18.0202   40.5134 H   0  0  0  0  0
   77.4262  -15.4498   39.1371 H   0  0  0  0  0
   77.3207  -14.5086   41.4792 H   0  0  0  0  0
   78.0196  -16.0174   42.1323 H   0  0  0  0  0
   75.9989  -17.3320   41.3425 H   0  0  0  0  0
   73.9356  -16.0588   40.4935 H   0  0  0  0  0
   75.2803  -16.0076   39.3265 H   0  0  0  0  0
   74.9269  -14.5721   40.3443 H   0  0  0  0  0
   74.3180  -16.3541   42.9266 H   0  0  0  0  0
   75.2144  -14.8017   42.9611 H   0  0  0  0  0
   75.9569  -16.2857   43.6360 H   0  0  0  0  0
   78.9249  -13.6569   38.6303 H   0  0  0  0  0
   81.6916  -14.1611   39.6084 H   0  0  0  0  0
   80.1657  -11.4720   39.2927 H   0  0  0  0  0
   81.9380  -11.5595   38.9709 H   0  0  0  0  0
   82.4055  -13.0271   37.5745 H   0  0  0  0  0
   80.7398  -13.1138   36.9933 H   0  0  0  0  0
   80.8894  -15.6039   37.1630 H   0  0  0  0  0
   82.7110  -16.3355   38.5256 H   0  0  0  0  0
   83.7727  -15.0012   37.9608 H   0  0  0  0  0
   83.0506  -17.5771   36.5100 H   0  0  0  0  0
   84.6009  -16.6575   36.5142 H   0  0  0  0  0
   83.3850  -15.9596   34.3684 H   0  0  0  0  0
   82.9377   -9.8467   43.9523 H   0  0  0  0  0
   84.3593  -10.8355   43.4556 H   0  0  0  0  0
   83.9505  -11.0364   45.9483 H   0  0  0  0  0
   83.7065  -12.6180   45.1469 H   0  0  0  0  0
   82.2913  -11.6336   45.6424 H   0  0  0  0  0
   80.4486  -12.2304   41.4944 H   0  0  0  0  0
   81.9176  -13.2079   41.1276 H   0  0  0  0  0
  1  4  1  0  0  0
  1  5  2  0  0  0
  1 46  1  0  0  0
  2  3  2  0  0  0
  2  5  1  0  0  0
  2 47  1  0  0  0
  3  4  1  0  0  0
  3 48  1  0  0  0
  5  6  1  0  0  0
  6  7  2  0  0  0
  6  8  1  0  0  0
  8  9  1  0  0  0
  8 49  1  0  0  0
  9 10  1  0  0  0
  9 13  1  0  0  0
  9 50  1  0  0  0
 10 11  1  0  0  0
 10 12  1  0  0  0
 10 51  1  0  0  0
 11 52  1  0  0  0
 11 53  1  0  0  0
 11 54  1  0  0  0
 12 55  1  0  0  0
 12 56  1  0  0  0
 12 57  1  0  0  0
 13 14  2  0  0  0
 13 15  1  0  0  0
 15 16  1  0  0  0
 15 58  1  0  0  0
 16 17  1  0  0  0
 16 20  1  0  0  0
 16 59  1  0  0  0
 17 18  1  0  0  0
 17 19  1  0  0  0
 17 60  1  0  0  0
 18 61  1  0  0  0
 18 62  1  0  0  0
 18 63  1  0  0  0
 19 64  1  0  0  0
 19 65  1  0  0  0
 19 66  1  0  0  0
 20 21  2  0  0  0
 20 22  1  0  0  0
 22 23  1  0  0  0
 22 67  1  0  0  0
 23 24  1  0  0  0
 23 28  1  0  0  0
 23 68  1  0  0  0
 24 25  1  0  0  0
 24 69  1  0  0  0
 24 70  1  0  0  0
 25 26  1  0  0  0
 25 27  1  0  0  0
 25 71  1  0  0  0
 26 72  1  0  0  0
 26 73  1  0  0  0
 26 74  1  0  0  0
 27 75  1  0  0  0
 27 76  1  0  0  0
 27 77  1  0  0  0
 28 29  2  0  0  0
 28 30  1  0  0  0
 30 31  1  0  0  0
 30 78  1  0  0  0
 31 32  1  0  0  0
 31 33  1  0  0  0
 31 79  1  0  0  0
 32 40  1  0  0  0
 32 80  1  0  0  0
 32 81  1  0  0  0
 33 34  1  0  0  0
 33 82  1  0  0  0
 33 83  1  0  0  0
 34 35  1  0  0  0
 34 38  1  0  0  0
 34 84  1  0  0  0
 35 36  1  0  0  0
 35 85  1  0  0  0
 35 86  1  0  0  0
 36 37  1  0  0  0
 36 87  1  0  0  0
 36 88  1  0  0  0
 37 38  1  0  0  0
 37 89  1  0  0  0
 38 39  2  0  0  0
 40 41  1  0  0  0
 40 95  1  0  0  0
 40 96  1  0  0  0
 41 42  2  0  0  0
 41 43  1  0  0  0
 43 44  1  0  0  0
 44 45  1  0  0  0
 44 90  1  0  0  0
 44 91  1  0  0  0
 45 92  1  0  0  0
 45 93  1  0  0  0
 45 94  1  0  0  0
M  END
$$$$
