@<TRIPOS>MOLECULE
9IN_1_B_2001
 96 97 0 0 0
SMALL
NO_CHARGES

@<TRIPOS>ATOM
      1 C4         75.4830  -24.7940   37.1660 C.ar  2001  9IN2001      0.0000
      2 C2         77.1870  -26.2270   37.1310 C.ar  2001  9IN2001      0.0000
      3 C3         76.0990  -26.8720   37.6670 C.ar  2001  9IN2001      0.0000
      4 O1         74.9970  -26.0740   37.7330 O.3   2001  9IN2001      0.0000
      5 C1         76.6840  -24.8690   36.8340 C.ar  2001  9IN2001      0.0000
      6 C5         77.2080  -23.5090   36.1790 C.2   2001  9IN2001      0.0000
      7 O2         78.4230  -23.2100   36.0080 O.2   2001  9IN2001      0.0000
      8 N2         76.2590  -22.7210   36.8610 N.am  2001  9IN2001      0.0000
      9 C6         76.4380  -21.3200   36.8380 C.3   2001  9IN2001      0.0000
     10 C8         75.0430  -20.6310   36.8980 C.3   2001  9IN2001      0.0000
     11 C9         74.8070  -19.1030   36.9100 C.3   2001  9IN2001      0.0000
     12 C10        74.1500  -21.0800   35.7340 C.3   2001  9IN2001      0.0000
     13 C7         77.2740  -20.8650   37.9670 C.2   2001  9IN2001      0.0000
     14 O3         77.1320  -21.3910   39.0970 O.2   2001  9IN2001      0.0000
     15 N3         78.0110  -20.0090   37.6150 N.am  2001  9IN2001      0.0000
     16 C11        78.8730  -19.4960   38.6330 C.3   2001  9IN2001      0.0000
     17 C12        80.2890  -19.7110   38.0820 C.3   2001  9IN2001      0.0000
     18 C13        81.2790  -19.0980   39.0840 C.3   2001  9IN2001      0.0000
     19 C14        80.4860  -21.2510   38.1220 C.3   2001  9IN2001      0.0000
     20 C15        78.7550  -17.9390   38.5740 C.2   2001  9IN2001      0.0000
     21 O4         79.1160  -17.3050   37.5690 O.2   2001  9IN2001      0.0000
     22 N4         78.2280  -17.3850   39.7470 N.am  2001  9IN2001      0.0000
     23 C16        78.0400  -15.8790   39.9610 C.3   2001  9IN2001      0.0000
     24 C17        77.3770  -15.6100   41.3180 C.3   2001  9IN2001      0.0000
     25 C18        75.9360  -16.2220   41.4410 C.3   2001  9IN2001      0.0000
     26 C19        74.9730  -15.6840   40.3450 C.3   2001  9IN2001      0.0000
     27 C20        75.3260  -15.8980   42.8050 C.3   2001  9IN2001      0.0000
     28 C21        79.4670  -15.2570   39.8890 C.2   2001  9IN2001      0.0000
     29 O5         80.4120  -15.8630   40.5410 O.2   2001  9IN2001      0.0000
     30 N5         79.7100  -14.0920   39.1340 N.am  2001  9IN2001      0.0000
     31 C22        80.9590  -13.5390   39.0440 C.3   2001  9IN2001      0.0000
     32 C23        81.0860  -12.0700   39.4730 C.3   2001  9IN2001      0.0000
     33 C28        81.4710  -13.6310   37.6600 C.3   2001  9IN2001      0.0000
     34 C29        81.7910  -14.9540   37.0590 C.3   2001  9IN2001      0.0000
     35 C30        82.9830  -15.7200   37.6410 C.3   2001  9IN2001      0.0000
     36 C31        83.4930  -16.5550   36.4850 C.3   2001  9IN2001      0.0000
     37 N6         83.0300  -15.8120   35.3220 N.am  2001  9IN2001      0.0000
     38 C32        82.0940  -14.9160   35.5780 C.2   2001  9IN2001      0.0000
     39 O8         81.6010  -14.2200   34.7280 O.2   2001  9IN2001      0.0000
     40 C24        81.4180  -12.2360   40.9540 C.2   2001  9IN2001      0.0000
     41 C25        82.3180  -11.2750   41.6900 C.2   2001  9IN2001      0.0000
     42 O6         82.8600  -10.2750   41.1570 O.2   2001  9IN2001      0.0000
     43 O7         82.4830  -11.6740   43.0240 O.3   2001  9IN2001      0.0000
     44 C26        83.3240  -10.8830   43.8540 C.3   2001  9IN2001      0.0000
     45 C27        83.3160  -11.5790   45.2140 C.3   2001  9IN2001      0.0000
     46 H          74.5824  -24.1747   37.1195 H     2001  9IN2001      0.0000
     47 H          78.1968  -26.6108   36.9509 H     2001  9IN2001      0.0000
     48 H          75.9416  -27.8841   38.0454 H     2001  9IN2001      0.0000
     49 H          75.5084  -22.9582   37.5064 H     2001  9IN2001      0.0000
     50 H          76.8933  -21.0307   35.8593 H     2001  9IN2001      0.0000
     51 H          74.5561  -21.0021   37.8366 H     2001  9IN2001      0.0000
     52 H          73.7336  -18.8324   37.0262 H     2001  9IN2001      0.0000
     53 H          75.1812  -18.6216   35.9789 H     2001  9IN2001      0.0000
     54 H          75.3488  -18.6263   37.7574 H     2001  9IN2001      0.0000
     55 H          73.1092  -20.6953   35.8219 H     2001  9IN2001      0.0000
     56 H          74.0615  -22.1865   35.6714 H     2001  9IN2001      0.0000
     57 H          74.5472  -20.7353   34.7528 H     2001  9IN2001      0.0000
     58 H          78.0700  -19.6102   36.6674 H     2001  9IN2001      0.0000
     59 H          78.7460  -19.8965   39.6624 H     2001  9IN2001      0.0000
     60 H          80.4512  -19.3183   37.0518 H     2001  9IN2001      0.0000
     61 H          82.3299  -19.3409   38.8092 H     2001  9IN2001      0.0000
     62 H          81.1208  -19.4694   40.1211 H     2001  9IN2001      0.0000
     63 H          81.2175  -17.9903   39.1191 H     2001  9IN2001      0.0000
     64 H          81.5343  -21.5242   37.8664 H     2001  9IN2001      0.0000
     65 H          79.8446  -21.7753   37.3838 H     2001  9IN2001      0.0000
     66 H          80.2735  -21.6872   39.1237 H     2001  9IN2001      0.0000
     67 H          77.9709  -18.0202   40.5134 H     2001  9IN2001      0.0000
     68 H          77.4262  -15.4498   39.1371 H     2001  9IN2001      0.0000
     69 H          77.3207  -14.5086   41.4792 H     2001  9IN2001      0.0000
     70 H          78.0196  -16.0174   42.1323 H     2001  9IN2001      0.0000
     71 H          75.9989  -17.3320   41.3425 H     2001  9IN2001      0.0000
     72 H          73.9356  -16.0588   40.4935 H     2001  9IN2001      0.0000
     73 H          75.2803  -16.0076   39.3265 H     2001  9IN2001      0.0000
     74 H          74.9269  -14.5721   40.3443 H     2001  9IN2001      0.0000
     75 H          74.3180  -16.3541   42.9266 H     2001  9IN2001      0.0000
     76 H          75.2144  -14.8017   42.9611 H     2001  9IN2001      0.0000
     77 H          75.9569  -16.2857   43.6360 H     2001  9IN2001      0.0000
     78 H          78.9249  -13.6569   38.6303 H     2001  9IN2001      0.0000
     79 H          81.6916  -14.1611   39.6084 H     2001  9IN2001      0.0000
     80 H          80.1657  -11.4720   39.2927 H     2001  9IN2001      0.0000
     81 H          81.9380  -11.5595   38.9709 H     2001  9IN2001      0.0000
     82 H          82.4055  -13.0271   37.5745 H     2001  9IN2001      0.0000
     83 H          80.7398  -13.1138   36.9933 H     2001  9IN2001      0.0000
     84 H          80.8894  -15.6039   37.1630 H     2001  9IN2001      0.0000
     85 H          82.7110  -16.3355   38.5256 H     2001  9IN2001      0.0000
     86 H          83.7727  -15.0012   37.9608 H     2001  9IN2001      0.0000
     87 H          83.0506  -17.5771   36.5100 H     2001  9IN2001      0.0000
     88 H          84.6009  -16.6575   36.5142 H     2001  9IN2001      0.0000
     89 H          83.3850  -15.9596   34.3684 H     2001  9IN2001      0.0000
     90 H          82.9377   -9.8467   43.9523 H     2001  9IN2001      0.0000
     91 H          84.3593  -10.8355   43.4556 H     2001  9IN2001      0.0000
     92 H          83.9505  -11.0364   45.9483 H     2001  9IN2001      0.0000
     93 H          83.7065  -12.6180   45.1469 H     2001  9IN2001      0.0000
     94 H          82.2913  -11.6336   45.6424 H     2001  9IN2001      0.0000
     95 H          80.4486  -12.2304   41.4944 H     2001  9IN2001      0.0000
     96 H          81.9176  -13.2079   41.1276 H     2001  9IN2001      0.0000
@<TRIPOS>BOND
     1     1     4   ar
     2     1     5   ar
     3     1    46    1
     4     2     3   ar
     5     2     5   ar
     6     2    47    1
     7     3     4   ar
     8     3    48    1
     9     5     6    1
    10     6     7    2
    11     6     8    1
    12     8     9    1
    13     8    49    1
    14     9    10    1
    15     9    13    1
    16     9    50    1
    17    10    11    1
    18    10    12    1
    19    10    51    1
    20    11    52    1
    21    11    53    1
    22    11    54    1
    23    12    55    1
    24    12    56    1
    25    12    57    1
    26    13    14    2
    27    13    15    1
    28    15    16    1
    29    15    58    1
    30    16    17    1
    31    16    20    1
    32    16    59    1
    33    17    18    1
    34    17    19    1
    35    17    60    1
    36    18    61    1
    37    18    62    1
    38    18    63    1
    39    19    64    1
    40    19    65    1
    41    19    66    1
    42    20    21    2
    43    20    22    1
    44    22    23    1
    45    22    67    1
    46    23    24    1
    47    23    28    1
    48    23    68    1
    49    24    25    1
    50    24    69    1
    51    24    70    1
    52    25    26    1
    53    25    27    1
    54    25    71    1
    55    26    72    1
    56    26    73    1
    57    26    74    1
    58    27    75    1
    59    27    76    1
    60    27    77    1
    61    28    29    2
    62    28    30    1
    63    30    31    1
    64    30    78    1
    65    31    32    1
    66    31    33    1
    67    31    79    1
    68    32    40    1
    69    32    80    1
    70    32    81    1
    71    33    34    1
    72    33    82    1
    73    33    83    1
    74    34    35    1
    75    34    38    1
    76    34    84    1
    77    35    36    1
    78    35    85    1
    79    35    86    1
    80    36    37    1
    81    36    87    1
    82    36    88    1
    83    37    38    1
    84    37    89    1
    85    38    39    2
    86    40    41    1
    87    40    95    1
    88    40    96    1
    89    41    42    2
    90    41    43    1
    91    43    44    1
    92    44    45    1
    93    44    90    1
    94    44    91    1
    95    45    92    1
    96    45    93    1
    97    45    94    1

