9IN_1_A_1001
  -ISIS-            3D

 96 97  0  0  0  0  0  0  0  0  1 V2000
   99.7360    8.7990   -3.6060 C   0  0  0  0  0
  101.4930    7.4150   -3.5300 C   0  0  0  0  0
  101.5910    8.1650   -4.6800 C   0  0  0  0  0
  100.5560    9.0380   -4.8030 O   0  0  0  0  0
  100.2560    7.9030   -2.8970 C   0  0  0  0  0
   99.3780    7.6770   -1.6140 C   0  0  0  0  0
   98.1250    7.5380   -1.5540 O   0  0  0  0  0
  100.1610    8.6330   -0.9930 N   0  0  0  0  0
   99.8820    8.9270    0.3470 C   0  0  0  0  0
  101.2210    9.3320    0.9680 C   0  0  0  0  0
  101.4590    9.7730    2.4240 C   0  0  0  0  0
  102.2430    8.2020    0.7830 C   0  0  0  0  0
   98.8760   10.0150    0.5250 C   0  0  0  0  0
   98.8110   10.9710   -0.2800 O   0  0  0  0  0
   98.2200    9.8090    1.4890 N   0  0  0  0  0
   97.2230   10.7900    1.7610 C   0  0  0  0  0
   95.9320   10.0130    1.9830 C   0  0  0  0  0
   95.0210   11.2070    2.2940 C   0  0  0  0  0
   95.5620    9.5320    0.5590 C   0  0  0  0  0
   97.4020   11.1530    3.2600 C   0  0  0  0  0
   97.0940   10.3420    4.1370 O   0  0  0  0  0
   97.9290   12.4490    3.4870 N   0  0  0  0  0
   98.1610   12.9900    4.8980 C   0  0  0  0  0
   98.7870   14.3900    4.9060 C   0  0  0  0  0
  100.2130   14.4490    4.2720 C   0  0  0  0  0
  101.2270   13.5170    5.0090 C   0  0  0  0  0
  100.7620   15.8720    4.3290 C   0  0  0  0  0
   96.7720   12.9870    5.5440 C   0  0  0  0  0
   95.7870   13.5340    4.9010 O   0  0  0  0  0
   96.5820   12.4020    6.7740 N   0  0  0  0  0
   95.3610   12.4150    7.2860 C   0  0  0  0  0
   95.2110   13.2290    8.5640 C   0  0  0  0  0
   94.8900   11.0540    7.5940 C   0  0  0  0  0
   94.4120   10.1610    6.5240 C   0  0  0  0  0
   93.0830   10.5170    5.8490 C   0  0  0  0  0
   92.5770    9.1810    5.3520 C   0  0  0  0  0
   93.1840    8.2500    6.2880 N   0  0  0  0  0
   94.2050    8.7400    6.9650 C   0  0  0  0  0
   94.8250    8.1090    7.7800 O   0  0  0  0  0
   94.8140   14.6140    8.1190 C   0  0  0  0  0
   93.9490   15.5020    8.9890 C   0  0  0  0  0
   93.5030   15.1650   10.1240 O   0  0  0  0  0
   93.6970   16.7250    8.3470 O   0  0  0  0  0
   92.8790   17.6720    9.0180 C   0  0  0  0  0
   92.7840   18.8480    8.0490 C   0  0  0  0  0
   98.8496    9.4347   -3.5587 H   0  0  0  0  0
  102.1679    6.6367   -3.1579 H   0  0  0  0  0
  102.3126    8.2032   -5.4984 H   0  0  0  0  0
  100.9557    9.1145   -1.4409 H   0  0  0  0  0
   99.5433    7.9942    0.8612 H   0  0  0  0  0
  101.5902   10.1981    0.3588 H   0  0  0  0  0
  102.5112   10.0810    2.6161 H   0  0  0  0  0
  101.2048    8.9639    3.1447 H   0  0  0  0  0
  100.8195   10.6463    2.6833 H   0  0  0  0  0
  103.2593    8.4928    1.1318 H   0  0  0  0  0
  102.3715    7.8890   -0.2755 H   0  0  0  0  0
  101.9542    7.2904    1.3532 H   0  0  0  0  0
   98.3198    9.0085    2.1292 H   0  0  0  0  0
   97.1565   11.6704    1.0866 H   0  0  0  0  0
   95.8952    9.1775    2.7149 H   0  0  0  0  0
   93.9557   10.8887    2.2312 H   0  0  0  0  0
   95.1145   12.0601    1.5854 H   0  0  0  0  0
   95.1228   11.6136    3.3211 H   0  0  0  0  0
   94.5266    9.1239    0.5350 H   0  0  0  0  0
   96.2270    8.7094    0.2145 H   0  0  0  0  0
   95.6082   10.3403   -0.2048 H   0  0  0  0  0
   98.1476   13.0456    2.6786 H   0  0  0  0  0
   98.8140   12.2870    5.4640 H   0  0  0  0  0
   98.8402   14.7541    5.9582 H   0  0  0  0  0
   98.1159   15.0938    4.3614 H   0  0  0  0  0
  100.1527   14.1345    3.2026 H   0  0  0  0  0
  102.2562   13.6316    4.6012 H   0  0  0  0  0
  100.9612   12.4433    4.8951 H   0  0  0  0  0
  101.2745   13.7374    6.0988 H   0  0  0  0  0
  101.7633   15.9482    3.8489 H   0  0  0  0  0
  100.8685   16.2365    5.3752 H   0  0  0  0  0
  100.0959   16.5883    3.7977 H   0  0  0  0  0
   97.3686   11.9605    7.2692 H   0  0  0  0  0
   94.6047   12.7815    6.5549 H   0  0  0  0  0
   96.1438   13.2380    9.1717 H   0  0  0  0  0
   94.4026   12.8371    9.2207 H   0  0  0  0  0
   94.0443   11.1080    8.3192 H   0  0  0  0  0
   95.6991   10.5319    8.1591 H   0  0  0  0  0
   95.1959   10.1229    5.7300 H   0  0  0  0  0
   93.1997   11.2602    5.0295 H   0  0  0  0  0
   92.3733   10.9390    6.5978 H   0  0  0  0  0
   92.9216    8.9874    4.3104 H   0  0  0  0  0
   91.4649    9.1370    5.3630 H   0  0  0  0  0
   92.8640    7.2825    6.4250 H   0  0  0  0  0
   94.2593   14.5644    7.1559 H   0  0  0  0  0
   95.7445   15.1774    7.8767 H   0  0  0  0  0
   93.3348   17.9980    9.9764 H   0  0  0  0  0
   91.8680   17.2636    9.2273 H   0  0  0  0  0
   92.1591   19.6662    8.4690 H   0  0  0  0  0
   92.3252   18.5490    7.0811 H   0  0  0  0  0
   93.7839   19.2806    7.8261 H   0  0  0  0  0
  1  4  1  0  0  0
  1  5  2  0  0  0
  1 46  1  0  0  0
  2  3  2  0  0  0
  2  5  1  0  0  0
  2 47  1  0  0  0
  3  4  1  0  0  0
  3 48  1  0  0  0
  5  6  1  0  0  0
  6  7  2  0  0  0
  6  8  1  0  0  0
  8  9  1  0  0  0
  8 49  1  0  0  0
  9 10  1  0  0  0
  9 13  1  0  0  0
  9 50  1  0  0  0
 10 11  1  0  0  0
 10 12  1  0  0  0
 10 51  1  0  0  0
 11 52  1  0  0  0
 11 53  1  0  0  0
 11 54  1  0  0  0
 12 55  1  0  0  0
 12 56  1  0  0  0
 12 57  1  0  0  0
 13 14  2  0  0  0
 13 15  1  0  0  0
 15 16  1  0  0  0
 15 58  1  0  0  0
 16 17  1  0  0  0
 16 20  1  0  0  0
 16 59  1  0  0  0
 17 18  1  0  0  0
 17 19  1  0  0  0
 17 60  1  0  0  0
 18 61  1  0  0  0
 18 62  1  0  0  0
 18 63  1  0  0  0
 19 64  1  0  0  0
 19 65  1  0  0  0
 19 66  1  0  0  0
 20 21  2  0  0  0
 20 22  1  0  0  0
 22 23  1  0  0  0
 22 67  1  0  0  0
 23 24  1  0  0  0
 23 28  1  0  0  0
 23 68  1  0  0  0
 24 25  1  0  0  0
 24 69  1  0  0  0
 24 70  1  0  0  0
 25 26  1  0  0  0
 25 27  1  0  0  0
 25 71  1  0  0  0
 26 72  1  0  0  0
 26 73  1  0  0  0
 26 74  1  0  0  0
 27 75  1  0  0  0
 27 76  1  0  0  0
 27 77  1  0  0  0
 28 29  2  0  0  0
 28 30  1  0  0  0
 30 31  1  0  0  0
 30 78  1  0  0  0
 31 32  1  0  0  0
 31 33  1  0  0  0
 31 79  1  0  0  0
 32 40  1  0  0  0
 32 80  1  0  0  0
 32 81  1  0  0  0
 33 34  1  0  0  0
 33 82  1  0  0  0
 33 83  1  0  0  0
 34 35  1  0  0  0
 34 38  1  0  0  0
 34 84  1  0  0  0
 35 36  1  0  0  0
 35 85  1  0  0  0
 35 86  1  0  0  0
 36 37  1  0  0  0
 36 87  1  0  0  0
 36 88  1  0  0  0
 37 38  1  0  0  0
 37 89  1  0  0  0
 38 39  2  0  0  0
 40 41  1  0  0  0
 40 90  1  0  0  0
 40 91  1  0  0  0
 41 42  2  0  0  0
 41 43  1  0  0  0
 43 44  1  0  0  0
 44 45  1  0  0  0
 44 92  1  0  0  0
 44 93  1  0  0  0
 45 94  1  0  0  0
 45 95  1  0  0  0
 45 96  1  0  0  0
M  END
$$$$
