DMS_1_A_403
  -ISIS-            3D

 10  9  0  0  0  0  0  0  0  0  1 V2000
    2.3290  -19.1160    7.9780 S   0  0  0  0  0
    3.6060  -18.6290    8.6610 O   0  0  0  0  0
    1.0010  -18.1210    8.6240 C   0  0  0  0  0
    1.9140  -20.6500    8.7920 C   0  0  0  0  0
    0.0271  -18.5268    8.2818 H   0  0  0  0  0
    1.1077  -17.0815    8.2521 H   0  0  0  0  0
    1.0298  -18.1134    9.7331 H   0  0  0  0  0
    0.9177  -20.9982    8.4505 H   0  0  0  0  0
    1.9002  -20.5103    9.8926 H   0  0  0  0  0
    2.6713  -21.4183    8.5337 H   0  0  0  0  0
  1  2  2  0  0  0
  1  3  1  0  0  0
  1  4  1  0  0  0
  3  5  1  0  0  0
  3  6  1  0  0  0
  3  7  1  0  0  0
  4  8  1  0  0  0
  4  9  1  0  0  0
  4 10  1  0  0  0
M  END
$$$$
