DMS_2_A_401
  -ISIS-            3D

 10  9  0  0  0  0  0  0  0  0  1 V2000
   -6.9450  -28.0950  -21.3180 S   0  0  0  0  0
   -7.6400  -27.1880  -22.2480 O   0  0  0  0  0
   -5.7030  -28.8980  -22.2930 C   0  0  0  0  0
   -5.8670  -27.1010  -20.3540 C   0  0  0  0  0
   -5.0379  -29.4972  -21.6381 H   0  0  0  0  0
   -5.0991  -28.1499  -22.8469 H   0  0  0  0  0
   -6.1908  -29.5772  -23.0218 H   0  0  0  0  0
   -5.2029  -27.7455  -19.7426 H   0  0  0  0  0
   -6.4661  -26.4619  -19.6735 H   0  0  0  0  0
   -5.2493  -26.4494  -21.0059 H   0  0  0  0  0
  1  2  2  0  0  0
  1  3  1  0  0  0
  1  4  1  0  0  0
  3  5  1  0  0  0
  3  6  1  0  0  0
  3  7  1  0  0  0
  4  8  1  0  0  0
  4  9  1  0  0  0
  4 10  1  0  0  0
M  END
$$$$
