FMT_1_A_7106
  -ISIS-            3D

  4  3  0  0  0  0  0  0  0  0  1 V2000
   99.6340    8.7300  -15.4240 C   0  0  0  0  0
   98.7160    8.9700  -16.1820 O   0  0  0  0  0
   99.8880    9.3840  -14.3290 O   0  0  0  0  0
  100.3386    7.8554  -15.6906 H   0  0  0  0  0
  1  2  2  0  0  0
  1  3  1  0  0  0
  1  4  1  0  0  0
M  END
$$$$
