@<TRIPOS>MOLECULE
FMT_1_A_7105
 3 2 0 0 0
SMALL
NO_CHARGES

@<TRIPOS>ATOM
      1 C          95.8960    5.9900   -4.1760 C.2   7105  FMT7105      0.0000
      2 O1         95.9780    5.2410   -5.1260 O.2   7105  FMT7105      0.0000
      3 O2         96.6590    5.9420   -3.1280 O.2   7105  FMT7105     -0.5000
@<TRIPOS>BOND
     1     1     2   ar
     2     1     3   ar

