FMT_1_A_7108
  -ISIS-            3D

  4  3  0  0  0  0  0  0  0  0  1 V2000
   89.1380   37.4800   -3.0570 C   0  0  0  0  0
   89.0420   37.8510   -4.2100 O   0  0  0  0  0
   90.0690   37.8530   -2.2280 O   0  0  0  0  0
   88.3456   36.7399   -2.6610 H   0  0  0  0  0
  1  2  2  0  0  0
  1  3  1  0  0  0
  1  4  1  0  0  0
M  END
$$$$
