@<TRIPOS>MOLECULE
FMT_1_A_7106
 4 3 0 0 0
SMALL
NO_CHARGES

@<TRIPOS>ATOM
      1 C          99.6340    8.7300  -15.4240 C.2   7106  FMT7106      0.0000
      2 O1         98.7160    8.9700  -16.1820 O.2   7106  FMT7106     -0.5000
      3 O2         99.8880    9.3840  -14.3290 O.3   7106  FMT7106     -0.5000
      4 H         100.3386    7.8554  -15.6906 H     7106  FMT7106      0.0000
@<TRIPOS>BOND
     1     1     2   ar
     2     1     3   ar
     3     1     4    1

