@<TRIPOS>MOLECULE
DMS_1_A_401
 10 9 0 0 0
SMALL
NO_CHARGES

@<TRIPOS>ATOM
      1 S           6.0300   -0.4590   -7.0330 S.o    401  DMS401      0.0000
      2 O           6.9870   -1.2590   -7.8750 O.2    401  DMS401      0.0000
      3 C1          6.8560   -0.3130   -5.4330 C.3    401  DMS401      0.0000
      4 C2          5.9610    1.2510   -7.7260 C.3    401  DMS401      0.0000
      5 H           6.2558    0.3412   -4.7683 H      401  DMS401      0.0000
      6 H           7.8656    0.1258   -5.5702 H      401  DMS401      0.0000
      7 H           6.9479   -1.3180   -4.9726 H      401  DMS401      0.0000
      8 H           5.3532    1.8921   -7.0555 H      401  DMS401      0.0000
      9 H           5.4939    1.2178   -8.7315 H      401  DMS401      0.0000
     10 H           6.9888    1.6608   -7.8050 H      401  DMS401      0.0000
@<TRIPOS>BOND
     1     1     2    2
     2     1     3    1
     3     1     4    1
     4     3     5    1
     5     3     6    1
     6     3     7    1
     7     4     8    1
     8     4     9    1
     9     4    10    1

