DMS_1_A_401
  -ISIS-            3D

 10  9  0  0  0  0  0  0  0  0  1 V2000
    6.0300   -0.4590   -7.0330 S   0  0  0  0  0
    6.9870   -1.2590   -7.8750 O   0  0  0  0  0
    6.8560   -0.3130   -5.4330 C   0  0  0  0  0
    5.9610    1.2510   -7.7260 C   0  0  0  0  0
    6.2558    0.3412   -4.7683 H   0  0  0  0  0
    7.8656    0.1258   -5.5702 H   0  0  0  0  0
    6.9479   -1.3180   -4.9726 H   0  0  0  0  0
    5.3532    1.8921   -7.0555 H   0  0  0  0  0
    5.4939    1.2178   -8.7315 H   0  0  0  0  0
    6.9888    1.6608   -7.8050 H   0  0  0  0  0
  1  2  2  0  0  0
  1  3  1  0  0  0
  1  4  1  0  0  0
  3  5  1  0  0  0
  3  6  1  0  0  0
  3  7  1  0  0  0
  4  8  1  0  0  0
  4  9  1  0  0  0
  4 10  1  0  0  0
M  END
$$$$
