@<TRIPOS>MOLECULE
DMS_2_A_402
 10 9 0 0 0
SMALL
NO_CHARGES

@<TRIPOS>ATOM
      1 S          -6.2620   -2.6140  -33.5030 S.o    402  DMS402      0.0000
      2 O          -7.1120   -2.2040  -34.6610 O.2    402  DMS402      0.0000
      3 C1         -5.6840   -4.3350  -33.6010 C.3    402  DMS402      0.0000
      4 C2         -4.7400   -1.6920  -33.1340 C.3    402  DMS402      0.0000
      5 H          -5.1953   -4.6163  -32.6459 H      402  DMS402      0.0000
      6 H          -4.9598   -4.4365  -34.4351 H      402  DMS402      0.0000
      7 H          -6.5511   -5.0028  -33.7808 H      402  DMS402      0.0000
      8 H          -4.3017   -2.0649  -32.1858 H      402  DMS402      0.0000
      9 H          -4.9825   -0.6148  -33.0292 H      402  DMS402      0.0000
     10 H          -4.0135   -1.8286  -33.9610 H      402  DMS402      0.0000
@<TRIPOS>BOND
     1     1     2    2
     2     1     3    1
     3     1     4    1
     4     3     5    1
     5     3     6    1
     6     3     7    1
     7     4     8    1
     8     4     9    1
     9     4    10    1

