DMS_2_A_1002
  -ISIS-            3D

 10  9  0  0  0  0  0  0  0  0  1 V2000
   -7.0490  -28.1270  -21.3870 S   0  0  0  0  0
   -7.6830  -27.0970  -22.1830 O   0  0  0  0  0
   -5.7850  -28.7840  -22.4360 C   0  0  0  0  0
   -6.0560  -27.2860  -20.1990 C   0  0  0  0  0
   -5.1505  -29.4895  -21.8616 H   0  0  0  0  0
   -5.1527  -27.9662  -22.8391 H   0  0  0  0  0
   -6.2530  -29.3299  -23.2807 H   0  0  0  0  0
   -5.4229  -28.0161  -19.6545 H   0  0  0  0  0
   -6.7120  -26.7676  -19.4701 H   0  0  0  0  0
   -5.4068  -26.5371  -20.6976 H   0  0  0  0  0
  1  2  2  0  0  0
  1  3  1  0  0  0
  1  4  1  0  0  0
  3  5  1  0  0  0
  3  6  1  0  0  0
  3  7  1  0  0  0
  4  8  1  0  0  0
  4  9  1  0  0  0
  4 10  1  0  0  0
M  END
$$$$
