@<TRIPOS>MOLECULE
DMS_1_A_1003
 10 9 0 0 0
SMALL
NO_CHARGES

@<TRIPOS>ATOM
      1 S           6.2510   -1.0740   -6.3600 S.o   1003  DMS1003      0.0000
      2 O           7.2180   -0.7390   -7.4030 O.2   1003  DMS1003      0.0000
      3 C1          7.2570   -1.1750   -4.9050 C.3   1003  DMS1003      0.0000
      4 C2          5.9020   -2.7820   -6.5670 C.3   1003  DMS1003      0.0000
      5 H           6.6592   -1.5800   -4.0630 H     1003  DMS1003      0.0000
      6 H           7.6146   -0.1608   -4.6331 H     1003  DMS1003      0.0000
      7 H           8.1333   -1.8317   -5.0824 H     1003  DMS1003      0.0000
      8 H           5.3165   -3.1544   -5.7016 H     1003  DMS1003      0.0000
      9 H           6.8421   -3.3646   -6.6517 H     1003  DMS1003      0.0000
     10 H           5.3045   -2.9271   -7.4902 H     1003  DMS1003      0.0000
@<TRIPOS>BOND
     1     1     2    2
     2     1     3    1
     3     1     4    1
     4     3     5    1
     5     3     6    1
     6     3     7    1
     7     4     8    1
     8     4     9    1
     9     4    10    1

