DMS_2_A_1004
  -ISIS-            3D

 10  9  0  0  0  0  0  0  0  0  1 V2000
   -2.3110  -19.0820   -8.2180 S   0  0  0  0  0
   -3.6170  -18.7420   -8.8250 O   0  0  0  0  0
   -1.1730  -17.9800   -9.0020 C   0  0  0  0  0
   -1.8430  -20.5640   -9.0780 C   0  0  0  0  0
   -0.1326  -18.2799   -8.7613 H   0  0  0  0  0
   -1.3423  -16.9495   -8.6281 H   0  0  0  0  0
   -1.3137  -17.9914  -10.1026 H   0  0  0  0  0
   -0.7901  -20.8192   -8.8405 H   0  0  0  0  0
   -1.9508  -20.4293  -10.1741 H   0  0  0  0  0
   -2.4951  -21.3998   -8.7513 H   0  0  0  0  0
  1  2  2  0  0  0
  1  3  1  0  0  0
  1  4  1  0  0  0
  3  5  1  0  0  0
  3  6  1  0  0  0
  3  7  1  0  0  0
  4  8  1  0  0  0
  4  9  1  0  0  0
  4 10  1  0  0  0
M  END
$$$$
