@<TRIPOS>MOLECULE
DMS_1_A_402
 10 9 0 0 0
SMALL
NO_CHARGES

@<TRIPOS>ATOM
      1 S           2.2370  -19.2360    8.2900 S.o    402  DMS402      0.0000
      2 O           3.4420  -18.6050    8.9320 O.2    402  DMS402      0.0000
      3 C1          0.8290  -18.3910    8.9550 C.3    402  DMS402      0.0000
      4 C2          1.9980  -20.7880    9.1160 C.3    402  DMS402      0.0000
      5 H          -0.1024  -18.9020    8.6360 H      402  DMS402      0.0000
      6 H           0.8133  -17.3492    8.5743 H      402  DMS402      0.0000
      7 H           0.8777  -18.3692   10.0631 H      402  DMS402      0.0000
      8 H           1.0392  -21.2427    8.7932 H      402  DMS402      0.0000
      9 H           1.9870  -20.6438   10.2159 H      402  DMS402      0.0000
     10 H           2.8270  -21.4756    8.8506 H      402  DMS402      0.0000
@<TRIPOS>BOND
     1     1     2    2
     2     1     3    1
     3     1     4    1
     4     3     5    1
     5     3     6    1
     6     3     7    1
     7     4     8    1
     8     4     9    1
     9     4    10    1

