DMS_1_A_401
  -ISIS-            3D

 10  9  0  0  0  0  0  0  0  0  1 V2000
    7.1790  -28.1020   21.5610 S   0  0  0  0  0
    7.9740  -27.1970   22.4360 O   0  0  0  0  0
    5.9130  -28.8220   22.5760 C   0  0  0  0  0
    6.1310  -27.1020   20.5370 C   0  0  0  0  0
    5.2221  -29.4212   21.9483 H   0  0  0  0  0
    5.3420  -28.0293   23.1016 H   0  0  0  0  0
    6.3816  -29.4886   23.3287 H   0  0  0  0  0
    5.4384  -27.7491   19.9608 H   0  0  0  0  0
    6.7567  -26.5248   19.8258 H   0  0  0  0  0
    5.5454  -26.3942   21.1589 H   0  0  0  0  0
  1  2  2  0  0  0
  1  3  1  0  0  0
  1  4  1  0  0  0
  3  5  1  0  0  0
  3  6  1  0  0  0
  3  7  1  0  0  0
  4  8  1  0  0  0
  4  9  1  0  0  0
  4 10  1  0  0  0
M  END
$$$$
