@<TRIPOS>MOLECULE
MOK_1_A_201
 23 24 0 0 0
SMALL
NO_CHARGES

@<TRIPOS>ATOM
      1 C1        -42.9320  -31.1420    0.6640 C.3    201  MOK201      0.0000
      2 C2        -44.3300  -30.7690    0.9980 C.ar   201  MOK201      0.0000
      3 C3        -44.7290  -30.3340    2.2050 C.ar   201  MOK201      0.0000
      4 C4        -43.7780  -30.1500    3.3320 C.2    201  MOK201      0.0000
      5 O5        -43.4510  -31.1490    4.0030 O.co2  201  MOK201     -0.5000
      6 O6        -43.3310  -29.0070    3.5520 O.co2  201  MOK201     -0.5000
      7 C7        -46.0970  -30.0590    2.0920 C.ar   201  MOK201      0.0000
      8 N8        -46.4300  -30.3800    0.8660 N.ar   201  MOK201      0.0000
      9 O9        -45.3570  -30.7270    0.2330 O.3    201  MOK201      0.0000
     10 C10       -47.0400  -29.5220    3.1190 C.ar   201  MOK201      0.0000
     11 C11       -48.2380  -29.0310    2.7150 C.ar   201  MOK201      0.0000
     12 C12       -49.1270  -28.5420    3.6260 C.ar   201  MOK201      0.0000
     13 C13       -48.7540  -28.5390    4.9380 C.ar   201  MOK201      0.0000
     14 C14       -47.5480  -29.0650    5.3460 C.ar   201  MOK201      0.0000
     15 C15       -46.6730  -29.5450    4.4230 C.ar   201  MOK201      0.0000
     16 H         -42.8872  -32.1805    0.2679 H      201  MOK201      0.0000
     17 H         -42.2401  -31.0922    1.5314 H      201  MOK201      0.0000
     18 H         -42.5230  -30.4693   -0.1220 H      201  MOK201      0.0000
     19 H         -48.5113  -29.0251    1.6460 H      201  MOK201      0.0000
     20 H         -50.1080  -28.1484    3.3112 H      201  MOK201      0.0000
     21 H         -49.4436  -28.1246    5.6940 H      201  MOK201      0.0000
     22 H         -47.2887  -29.0811    6.4186 H      201  MOK201      0.0000
     23 H         -45.7110  -29.9479    4.7703 H      201  MOK201      0.0000
@<TRIPOS>BOND
     1     1     2    1
     2     1    16    1
     3     1    17    1
     4     1    18    1
     5     2     3   ar
     6     2     9   ar
     7     3     4    1
     8     3     7   ar
     9     4     5   ar
    10     4     6   ar
    11     7     8   ar
    12     7    10    1
    13     8     9   ar
    14    10    11   ar
    15    10    15   ar
    16    11    12   ar
    17    11    19    1
    18    12    13   ar
    19    12    20    1
    20    13    14   ar
    21    13    21    1
    22    14    15   ar
    23    14    22    1
    24    15    23    1

