DMS_2_A_401
  -ISIS-            3D

 10  9  0  0  0  0  0  0  0  0  1 V2000
   -7.1060  -28.1410  -21.3100 S   0  0  0  0  0
   -7.8510  -27.2460  -22.2250 O   0  0  0  0  0
   -5.9470  -29.0200  -22.3010 C   0  0  0  0  0
   -5.9980  -27.1250  -20.3910 C   0  0  0  0  0
   -5.2756  -29.6195  -21.6529 H   0  0  0  0  0
   -5.3409  -28.3141  -22.9051 H   0  0  0  0  0
   -6.4902  -29.7050  -22.9836 H   0  0  0  0  0
   -5.3267  -27.7595  -19.7771 H   0  0  0  0  0
   -6.5786  -26.4622  -19.7173 H   0  0  0  0  0
   -5.3888  -26.4999  -21.0757 H   0  0  0  0  0
  1  2  2  0  0  0
  1  3  1  0  0  0
  1  4  1  0  0  0
  3  5  1  0  0  0
  3  6  1  0  0  0
  3  7  1  0  0  0
  4  8  1  0  0  0
  4  9  1  0  0  0
  4 10  1  0  0  0
M  END
$$$$
