@<TRIPOS>MOLECULE
DMS_2_A_403
 10 9 0 0 0
SMALL
NO_CHARGES

@<TRIPOS>ATOM
      1 S          -2.3900  -19.2140   -8.1060 S.o    403  DMS403      0.0000
      2 O          -3.5930  -18.7530   -8.8810 O.2    403  DMS403      0.0000
      3 C1         -1.0290  -18.1790   -8.6060 C.3    403  DMS403      0.0000
      4 C2         -1.8720  -20.7220   -8.9020 C.3    403  DMS403      0.0000
      5 H          -0.0828  -18.5715   -8.1801 H      403  DMS403      0.0000
      6 H          -1.1936  -17.1495   -8.2272 H      403  DMS403      0.0000
      7 H          -0.9531  -18.1499   -9.7121 H      403  DMS403      0.0000
      8 H          -0.9044  -21.0579   -8.4759 H      403  DMS403      0.0000
      9 H          -1.7599  -20.5630   -9.9939 H      403  DMS403      0.0000
     10 H          -2.6335  -21.5091   -8.7269 H      403  DMS403      0.0000
@<TRIPOS>BOND
     1     1     2    2
     2     1     3    1
     3     1     4    1
     4     3     5    1
     5     3     6    1
     6     3     7    1
     7     4     8    1
     8     4     9    1
     9     4    10    1

