@<TRIPOS>MOLECULE
DMS_1_A_403
 10 9 0 0 0
SMALL
NO_CHARGES

@<TRIPOS>ATOM
      1 S           2.2750  -19.0230    8.2540 S.o    403  DMS403      0.0000
      2 O           3.4880  -18.5780    8.9660 O.2    403  DMS403      0.0000
      3 C1          0.9610  -17.9850    8.8220 C.3    403  DMS403      0.0000
      4 C2          1.7940  -20.5130    9.1020 C.3    403  DMS403      0.0000
      5 H          -0.0111  -18.3741    8.4562 H      403  DMS403      0.0000
      6 H           1.1066  -16.9589    8.4267 H      403  DMS403      0.0000
      7 H           0.9487  -17.9457    9.9307 H      403  DMS403      0.0000
      8 H           0.8011  -20.8480    8.7385 H      403  DMS403      0.0000
      9 H           1.7465  -20.3380   10.1966 H      403  DMS403      0.0000
     10 H           2.5379  -21.3094    8.8951 H      403  DMS403      0.0000
@<TRIPOS>BOND
     1     1     2    2
     2     1     3    1
     3     1     4    1
     4     3     5    1
     5     3     6    1
     6     3     7    1
     7     4     8    1
     8     4     9    1
     9     4    10    1

