@<TRIPOS>MOLECULE
DMS_2_A_401
 10 9 0 0 0
SMALL
NO_CHARGES

@<TRIPOS>ATOM
      1 S          -7.0700  -28.1750  -21.4710 S.o    401  DMS401      0.0000
      2 O          -7.7550  -27.1310  -22.2220 O.2    401  DMS401      0.0000
      3 C1         -5.7090  -28.6620  -22.4730 C.3    401  DMS401      0.0000
      4 C2         -6.1760  -27.3010  -20.2350 C.3    401  DMS401      0.0000
      5 H          -5.0396  -29.3348  -21.8991 H      401  DMS401      0.0000
      6 H          -5.1356  -27.7742  -22.8110 H      401  DMS401      0.0000
      7 H          -6.0836  -29.2078  -23.3631 H      401  DMS401      0.0000
      8 H          -5.4931  -27.9940  -19.7023 H      401  DMS401      0.0000
      9 H          -6.8871  -26.8694  -19.5010 H      401  DMS401      0.0000
     10 H          -5.5841  -26.4790  -20.6881 H      401  DMS401      0.0000
@<TRIPOS>BOND
     1     1     2    2
     2     1     3    1
     3     1     4    1
     4     3     5    1
     5     3     6    1
     6     3     7    1
     7     4     8    1
     8     4     9    1
     9     4    10    1

