@<TRIPOS>MOLECULE
DMS_1_A_404
 10 9 0 0 0
SMALL
NO_CHARGES

@<TRIPOS>ATOM
      1 S          20.8590   14.4340    7.4030 S.o    404  DMS404      0.0000
      2 O          22.0580   15.2320    7.6820 O.2    404  DMS404      0.0000
      3 C1         20.7940   13.2340    8.6960 C.3    404  DMS404      0.0000
      4 C2         21.3330   13.3610    6.0890 C.3    404  DMS404      0.0000
      5 H          20.0098   12.4819    8.4730 H      404  DMS404      0.0000
      6 H          20.5435   13.7369    9.6525 H      404  DMS404      0.0000
      7 H          21.7733   12.7236    8.8034 H      404  DMS404      0.0000
      8 H          20.5403   12.6049    5.9151 H      404  DMS404      0.0000
      9 H          22.2856   12.8458    6.3303 H      404  DMS404      0.0000
     10 H          21.4695   13.9531    5.1609 H      404  DMS404      0.0000
@<TRIPOS>BOND
     1     1     2    2
     2     1     3    1
     3     1     4    1
     4     3     5    1
     5     3     6    1
     6     3     7    1
     7     4     8    1
     8     4     9    1
     9     4    10    1

