DMS_1_A_402
  -ISIS-            3D

 10  9  0  0  0  0  0  0  0  0  1 V2000
    6.1090   -1.0670   -6.3150 S   0  0  0  0  0
    7.0100   -0.8700   -7.4800 O   0  0  0  0  0
    7.1420   -0.8730   -4.8740 C   0  0  0  0  0
    5.8510   -2.8120   -6.1730 C   0  0  0  0  0
    6.5727   -1.1498   -3.9631 H   0  0  0  0  0
    7.4580    0.1871   -4.7902 H   0  0  0  0  0
    8.0442   -1.5133   -4.9556 H   0  0  0  0  0
    5.3119   -3.0381   -5.2305 H   0  0  0  0  0
    6.8212   -3.3497   -6.1816 H   0  0  0  0  0
    5.2375   -3.1629   -7.0279 H   0  0  0  0  0
  1  2  2  0  0  0
  1  3  1  0  0  0
  1  4  1  0  0  0
  3  5  1  0  0  0
  3  6  1  0  0  0
  3  7  1  0  0  0
  4  8  1  0  0  0
  4  9  1  0  0  0
  4 10  1  0  0  0
M  END
$$$$
