@<TRIPOS>MOLECULE
DMS_1_A_402
 10 9 0 0 0
SMALL
NO_CHARGES

@<TRIPOS>ATOM
      1 S           6.1090   -1.0670   -6.3150 S.o    402  DMS402      0.0000
      2 O           7.0100   -0.8700   -7.4800 O.2    402  DMS402      0.0000
      3 C1          7.1420   -0.8730   -4.8740 C.3    402  DMS402      0.0000
      4 C2          5.8510   -2.8120   -6.1730 C.3    402  DMS402      0.0000
      5 H           6.5727   -1.1498   -3.9631 H      402  DMS402      0.0000
      6 H           7.4580    0.1871   -4.7902 H      402  DMS402      0.0000
      7 H           8.0442   -1.5133   -4.9556 H      402  DMS402      0.0000
      8 H           5.3119   -3.0381   -5.2305 H      402  DMS402      0.0000
      9 H           6.8212   -3.3497   -6.1816 H      402  DMS402      0.0000
     10 H           5.2375   -3.1629   -7.0279 H      402  DMS402      0.0000
@<TRIPOS>BOND
     1     1     2    2
     2     1     3    1
     3     1     4    1
     4     3     5    1
     5     3     6    1
     6     3     7    1
     7     4     8    1
     8     4     9    1
     9     4    10    1

