@<TRIPOS>MOLECULE
DMS_1_A_403
 10 9 0 0 0
SMALL
NO_CHARGES

@<TRIPOS>ATOM
      1 S           2.3150  -19.0550    8.0170 S.o    403  DMS403      0.0000
      2 O           3.6270  -18.5720    8.6150 O.2    403  DMS403      0.0000
      3 C1          1.0380  -18.0290    8.7230 C.3    403  DMS403      0.0000
      4 C2          1.9380  -20.5790    8.8720 C.3    403  DMS403      0.0000
      5 H           0.0409  -18.4263    8.4432 H      403  DMS403      0.0000
      6 H           1.1377  -16.9971    8.3288 H      403  DMS403      0.0000
      7 H           1.1305  -18.0056    9.8282 H      403  DMS403      0.0000
      8 H           0.9213  -20.9232    8.5926 H      403  DMS403      0.0000
      9 H           1.9889  -20.4268    9.9696 H      403  DMS403      0.0000
     10 H           2.6741  -21.3552    8.5785 H      403  DMS403      0.0000
@<TRIPOS>BOND
     1     1     2    2
     2     1     3    1
     3     1     4    1
     4     3     5    1
     5     3     6    1
     6     3     7    1
     7     4     8    1
     8     4     9    1
     9     4    10    1

