DMS_2_A_401
  -ISIS-            3D

 10  9  0  0  0  0  0  0  0  0  1 V2000
   -6.8840  -28.0330  -21.3600 S   0  0  0  0  0
   -7.7120  -27.1260  -22.1730 O   0  0  0  0  0
   -5.6480  -28.6870  -22.4560 C   0  0  0  0  0
   -5.8110  -26.9950  -20.4140 C   0  0  0  0  0
   -4.8980  -29.2642  -21.8770 H   0  0  0  0  0
   -5.1411  -27.8666  -23.0036 H   0  0  0  0  0
   -6.1313  -29.3649  -23.1897 H   0  0  0  0  0
   -5.0562  -27.6133  -19.8860 H   0  0  0  0  0
   -6.4076  -26.4409  -19.6601 H   0  0  0  0  0
   -5.2959  -26.2654  -21.0712 H   0  0  0  0  0
  1  2  2  0  0  0
  1  3  1  0  0  0
  1  4  1  0  0  0
  3  5  1  0  0  0
  3  6  1  0  0  0
  3  7  1  0  0  0
  4  8  1  0  0  0
  4  9  1  0  0  0
  4 10  1  0  0  0
M  END
$$$$
