DMS_2_A_404
  -ISIS-            3D

 10  9  0  0  0  0  0  0  0  0  1 V2000
   -5.7470    0.4810  -18.2110 S   0  0  0  0  0
   -5.0250    1.7860  -18.4410 O   0  0  0  0  0
   -6.2440   -0.0870  -19.8170 C   0  0  0  0  0
   -7.3580    0.9100  -17.6270 C   0  0  0  0  0
   -6.9117   -0.9669  -19.7162 H   0  0  0  0  0
   -5.3450   -0.3856  -20.3941 H   0  0  0  0  0
   -6.7735    0.7181  -20.3668 H   0  0  0  0  0
   -7.9971    0.0046  -17.5813 H   0  0  0  0  0
   -7.8274    1.6600  -18.2963 H   0  0  0  0  0
   -7.2761    1.3398  -16.6077 H   0  0  0  0  0
  1  2  2  0  0  0
  1  3  1  0  0  0
  1  4  1  0  0  0
  3  5  1  0  0  0
  3  6  1  0  0  0
  3  7  1  0  0  0
  4  8  1  0  0  0
  4  9  1  0  0  0
  4 10  1  0  0  0
M  END
$$$$
