DMS_1_A_401
  -ISIS-            3D

 10  9  0  0  0  0  0  0  0  0  1 V2000
    6.9500   -1.4560   -6.0650 S   0  0  0  0  0
    6.1910   -0.3030   -6.6280 O   0  0  0  0  0
    5.8270   -2.8650   -5.8410 C   0  0  0  0  0
    7.4490   -1.1250   -4.3470 C   0  0  0  0  0
    6.3810   -3.7113   -5.3859 H   0  0  0  0  0
    5.4293   -3.1765   -6.8285 H   0  0  0  0  0
    4.9853   -2.5724   -5.1804 H   0  0  0  0  0
    7.9650   -2.0154   -3.9335 H   0  0  0  0  0
    6.5532   -0.8949   -3.7346 H   0  0  0  0  0
    8.1410   -0.2584   -4.3283 H   0  0  0  0  0
  1  2  2  0  0  0
  1  3  1  0  0  0
  1  4  1  0  0  0
  3  5  1  0  0  0
  3  6  1  0  0  0
  3  7  1  0  0  0
  4  8  1  0  0  0
  4  9  1  0  0  0
  4 10  1  0  0  0
M  END
$$$$
