SV6_1_A_402
  -ISIS-            3D

104108  0  0  0  0  0  0  0  0  1 V2000
   11.9320    8.3900   26.5250 C   0  0  0  0  0
   12.5660    7.9280   28.7080 C   0  0  0  0  0
   12.5840    9.3080   28.9930 C   0  0  0  0  0
   11.5220    7.8830   25.1750 C   0  0  0  0  0
   11.9250    9.7740   26.8150 C   0  0  0  0  0
   11.3150    8.6490   24.2390 O   0  0  0  0  0
   12.2220    7.4670   27.4790 N   0  0  0  0  0
   12.2650   10.2210   28.0480 N   0  0  0  0  0
   11.3320    6.5310   25.0550 N   0  0  0  0  0
   10.8520    5.9300   23.8130 C   0  0  0  0  0
    9.9960    4.7630   24.3520 C   0  0  0  0  0
   10.1540    4.3080   25.5160 O   0  0  0  0  0
   11.9650    5.3100   22.9170 C   0  0  0  0  0
   12.8600    4.3000   23.6560 C   0  0  0  0  0
   13.9810    3.7690   22.7710 C   0  0  0  0  0
   14.7850    4.8940   22.1150 C   0  0  0  0  0
   13.8610    5.8010   21.3220 C   0  0  0  0  0
   12.8200    6.3960   22.2530 C   0  0  0  0  0
    9.0630    4.2140   23.5020 N   0  0  0  0  0
    8.3020    3.0860   23.9680 C   0  0  0  0  0
    6.7510    3.3780   23.9020 C   0  0  0  0  0
    5.9830    2.1570   24.4060 C   0  0  0  0  0
    6.4580    4.5140   24.9050 C   0  0  0  0  0
    6.2440    3.7530   22.5020 C   0  0  0  0  0
    8.6910    1.8160   23.1450 C   0  0  0  0  0
    8.5300    1.7810   21.9340 O   0  0  0  0  0
    8.3210   -1.3320   22.9910 C   0  0  0  0  0
    9.2660    0.7050   23.7490 N   0  0  0  0  0
    7.6560   -1.5670   24.0030 O   0  0  0  0  0
    9.6330   -0.5340   23.0560 C   0  0  0  0  0
   10.6390   -1.2530   23.9720 C   0  0  0  0  0
   10.7390   -0.3600   25.2340 C   0  0  0  0  0
   12.0420   -1.2760   23.3400 C   0  0  0  0  0
   12.7000    0.0350   23.7720 C   0  0  0  0  0
    9.5420    0.5780   25.1830 C   0  0  0  0  0
   12.0910    0.3670   25.1370 C   0  0  0  0  0
    5.1110   -5.3120   22.2900 N   0  0  0  0  0
    7.8230   -1.7120   21.7620 N   0  0  0  0  0
    6.5370   -2.4150   21.7620 C   0  0  0  0  0
    6.7000   -3.8100   21.1100 C   0  0  0  0  0
    5.4150   -1.6440   21.0350 C   0  0  0  0  0
    5.5130   -0.1270   21.1190 C   0  0  0  0  0
    5.3000    0.4680   19.7340 C   0  0  0  0  0
    5.3720   -4.5940   21.1340 C   0  0  0  0  0
    3.9330   -6.0820   22.5280 C   0  0  0  0  0
    3.5200   -6.3470   23.9700 C   0  0  0  0  0
    2.7080   -5.3950   23.1220 C   0  0  0  0  0
    7.6040   -4.5280   21.8620 O   0  0  0  0  0
    4.5740   -4.5180   20.1940 O   0  0  0  0  0
   12.8227    7.1943   29.4895 H   0  0  0  0  0
   12.8603    9.6677   29.9976 H   0  0  0  0  0
   11.6536   10.5133   26.0449 H   0  0  0  0  0
   11.5074    5.9307   25.8761 H   0  0  0  0  0
   10.2046    6.6243   23.2299 H   0  0  0  0  0
   11.4486    4.7560   22.0934 H   0  0  0  0  0
   12.2516    3.4445   24.0255 H   0  0  0  0  0
   13.3088    4.7845   24.5535 H   0  0  0  0  0
   13.5486    3.1139   21.9790 H   0  0  0  0  0
   14.6613    3.1232   23.3737 H   0  0  0  0  0
   15.5606    4.4600   21.4420 H   0  0  0  0  0
   15.3280    5.4792   22.8928 H   0  0  0  0  0
   13.3697    5.2342   20.4979 H   0  0  0  0  0
   14.4514    6.6164   20.8430 H   0  0  0  0  0
   13.3237    7.0135   23.0315 H   0  0  0  0  0
   12.1631    7.0876   21.6756 H   0  0  0  0  0
    8.9324    4.5713   22.5474 H   0  0  0  0  0
    8.5149    2.8739   25.0361 H   0  0  0  0  0
    4.8855    2.3387   24.4388 H   0  0  0  0  0
    6.2921    1.8605   25.4332 H   0  0  0  0  0
    6.1385    1.2682   23.7572 H   0  0  0  0  0
    5.3701    4.7414   24.9644 H   0  0  0  0  0
    6.9649    5.4616   24.6167 H   0  0  0  0  0
    6.7936    4.2658   25.9368 H   0  0  0  0  0
    5.1530    3.9724   22.5105 H   0  0  0  0  0
    6.3946    2.9395   21.7616 H   0  0  0  0  0
    6.7443    4.6613   22.1014 H   0  0  0  0  0
   10.0407   -0.3479   22.0382 H   0  0  0  0  0
   10.2972   -2.2847   24.2184 H   0  0  0  0  0
   10.7102   -0.9773   26.1631 H   0  0  0  0  0
   12.0252   -1.4046   22.2356 H   0  0  0  0  0
   12.6183   -2.1317   23.7632 H   0  0  0  0  0
   12.4425    0.8377   23.0427 H   0  0  0  0  0
   13.8095   -0.0421   23.8109 H   0  0  0  0  0
    8.6777    0.1271   25.7213 H   0  0  0  0  0
    9.7865    1.5324   25.6929 H   0  0  0  0  0
   12.7663   -0.0096   25.9403 H   0  0  0  0  0
   12.0004    1.4651   25.2848 H   0  0  0  0  0
    5.8621   -5.2673   22.9972 H   0  0  0  0  0
    8.3281   -1.5015   20.8906 H   0  0  0  0  0
    6.1683   -2.5860   22.7999 H   0  0  0  0  0
    7.0596   -3.7016   20.0621 H   0  0  0  0  0
    4.4174   -1.9775   21.4044 H   0  0  0  0  0
    5.4502   -1.9334   19.9594 H   0  0  0  0  0
    6.4975    0.2065   21.5065 H   0  0  0  0  0
    4.7466    0.2651   21.8265 H   0  0  0  0  0
    5.3320    1.5803   19.7653 H   0  0  0  0  0
    4.3114    0.1849   19.3072 H   0  0  0  0  0
    6.0853    0.1433   19.0147 H   0  0  0  0  0
    3.7159   -6.8943   21.8342 H   0  0  0  0  0
    4.1360   -5.8854   24.7368 H   0  0  0  0  0
    3.0667   -7.3163   24.1591 H   0  0  0  0  0
    1.7473   -5.7681   22.7778 H   0  0  0  0  0
    2.8247   -4.3394   23.3520 H   0  0  0  0  0
    7.8777   -5.2953   21.3754 H   0  0  0  0  0
  1  4  1  0  0  0
  1  5  2  0  0  0
  1  7  1  0  0  0
  2  3  1  0  0  0
  2  7  2  0  0  0
  2 50  1  0  0  0
  3  8  2  0  0  0
  3 51  1  0  0  0
  4  6  2  0  0  0
  4  9  1  0  0  0
  5  8  1  0  0  0
  5 52  1  0  0  0
  9 10  1  0  0  0
  9 53  1  0  0  0
 10 11  1  0  0  0
 10 13  1  0  0  0
 10 54  1  0  0  0
 11 12  2  0  0  0
 11 19  1  0  0  0
 13 14  1  0  0  0
 13 18  1  0  0  0
 13 55  1  0  0  0
 14 15  1  0  0  0
 14 56  1  0  0  0
 14 57  1  0  0  0
 15 16  1  0  0  0
 15 58  1  0  0  0
 15 59  1  0  0  0
 16 17  1  0  0  0
 16 60  1  0  0  0
 16 61  1  0  0  0
 17 18  1  0  0  0
 17 62  1  0  0  0
 17 63  1  0  0  0
 18 64  1  0  0  0
 18 65  1  0  0  0
 19 20  1  0  0  0
 19 66  1  0  0  0
 20 21  1  0  0  0
 20 25  1  0  0  0
 20 67  1  0  0  0
 21 22  1  0  0  0
 21 23  1  0  0  0
 21 24  1  0  0  0
 22 68  1  0  0  0
 22 69  1  0  0  0
 22 70  1  0  0  0
 23 71  1  0  0  0
 23 72  1  0  0  0
 23 73  1  0  0  0
 24 74  1  0  0  0
 24 75  1  0  0  0
 24 76  1  0  0  0
 25 26  2  0  0  0
 25 28  1  0  0  0
 27 29  2  0  0  0
 27 30  1  0  0  0
 27 38  1  0  0  0
 28 30  1  0  0  0
 28 35  1  0  0  0
 30 31  1  0  0  0
 30 77  1  0  0  0
 31 32  1  0  0  0
 31 33  1  0  0  0
 31 78  1  0  0  0
 32 35  1  0  0  0
 32 36  1  0  0  0
 32 79  1  0  0  0
 33 34  1  0  0  0
 33 80  1  0  0  0
 33 81  1  0  0  0
 34 36  1  0  0  0
 34 82  1  0  0  0
 34 83  1  0  0  0
 35 84  1  0  0  0
 35 85  1  0  0  0
 36 86  1  0  0  0
 36 87  1  0  0  0
 37 44  1  0  0  0
 37 45  1  0  0  0
 37 88  1  0  0  0
 38 39  1  0  0  0
 38 89  1  0  0  0
 39 40  1  0  0  0
 39 41  1  0  0  0
 39 90  1  0  0  0
 40 44  1  0  0  0
 40 48  1  0  0  0
 40 91  1  0  0  0
 41 42  1  0  0  0
 41 92  1  0  0  0
 41 93  1  0  0  0
 42 43  1  0  0  0
 42 94  1  0  0  0
 42 95  1  0  0  0
 43 96  1  0  0  0
 43 97  1  0  0  0
 43 98  1  0  0  0
 44 49  2  0  0  0
 45 46  1  0  0  0
 45 47  1  0  0  0
 45 99  1  0  0  0
 46 47  1  0  0  0
 46100  1  0  0  0
 46101  1  0  0  0
 47102  1  0  0  0
 47103  1  0  0  0
 48104  1  0  0  0
M  END
$$$$
