@<TRIPOS>MOLECULE
SV6_1_A_402
 104 108 0 0 0
SMALL
NO_CHARGES

@<TRIPOS>ATOM
      1 CBN        11.9320    8.3900   26.5250 C.ar   402  SV6402      0.0000
      2 CBO        12.5660    7.9280   28.7080 C.ar   402  SV6402      0.0000
      3 CBP        12.5840    9.3080   28.9930 C.ar   402  SV6402      0.0000
      4 CBB        11.5220    7.8830   25.1750 C.2    402  SV6402      0.0000
      5 CBQ        11.9250    9.7740   26.8150 C.ar   402  SV6402      0.0000
      6 OBW        11.3150    8.6490   24.2390 O.2    402  SV6402      0.0000
      7 NAF        12.2220    7.4670   27.4790 N.ar   402  SV6402      0.0000
      8 NAG        12.2650   10.2210   28.0480 N.ar   402  SV6402      0.0000
      9 NAD        11.3320    6.5310   25.0550 N.am   402  SV6402      0.0000
     10 CAY        10.8520    5.9300   23.8130 C.3    402  SV6402      0.0000
     11 CAX         9.9960    4.7630   24.3520 C.2    402  SV6402      0.0000
     12 OBU        10.1540    4.3080   25.5160 O.2    402  SV6402      0.0000
     13 CBH        11.9650    5.3100   22.9170 C.3    402  SV6402      0.0000
     14 CBI        12.8600    4.3000   23.6560 C.3    402  SV6402      0.0000
     15 CBJ        13.9810    3.7690   22.7710 C.3    402  SV6402      0.0000
     16 CBK        14.7850    4.8940   22.1150 C.3    402  SV6402      0.0000
     17 CBL        13.8610    5.8010   21.3220 C.3    402  SV6402      0.0000
     18 CBM        12.8200    6.3960   22.2530 C.3    402  SV6402      0.0000
     19 NAC         9.0630    4.2140   23.5020 N.am   402  SV6402      0.0000
     20 CAW         8.3020    3.0860   23.9680 C.3    402  SV6402      0.0000
     21 CAZ         6.7510    3.3780   23.9020 C.3    402  SV6402      0.0000
     22 CBC         5.9830    2.1570   24.4060 C.3    402  SV6402      0.0000
     23 CBD         6.4580    4.5140   24.9050 C.3    402  SV6402      0.0000
     24 CBA         6.2440    3.7530   22.5020 C.3    402  SV6402      0.0000
     25 CAV         8.6910    1.8160   23.1450 C.2    402  SV6402      0.0000
     26 OBT         8.5300    1.7810   21.9340 O.2    402  SV6402      0.0000
     27 C           8.3210   -1.3320   22.9910 C.2    402  SV6402      0.0000
     28 N           9.2660    0.7050   23.7490 N.am   402  SV6402      0.0000
     29 O           7.6560   -1.5670   24.0030 O.2    402  SV6402      0.0000
     30 CA          9.6330   -0.5340   23.0560 C.3    402  SV6402      0.0000
     31 CB         10.6390   -1.2530   23.9720 C.3    402  SV6402      0.0000
     32 CG         10.7390   -0.3600   25.2340 C.3    402  SV6402      0.0000
     33 CBE        12.0420   -1.2760   23.3400 C.3    402  SV6402      0.0000
     34 CBF        12.7000    0.0350   23.7720 C.3    402  SV6402      0.0000
     35 CD1         9.5420    0.5780   25.1830 C.3    402  SV6402      0.0000
     36 CD2        12.0910    0.3670   25.1370 C.3    402  SV6402      0.0000
     37 NAA         5.1110   -5.3120   22.2900 N.am   402  SV6402      0.0000
     38 NAE         7.8230   -1.7120   21.7620 N.am   402  SV6402      0.0000
     39 CAH         6.5370   -2.4150   21.7620 C.3    402  SV6402      0.0000
     40 CAI         6.7000   -3.8100   21.1100 C.3    402  SV6402      0.0000
     41 CAJ         5.4150   -1.6440   21.0350 C.3    402  SV6402      0.0000
     42 CAK         5.5130   -0.1270   21.1190 C.3    402  SV6402      0.0000
     43 CAL         5.3000    0.4680   19.7340 C.3    402  SV6402      0.0000
     44 CAM         5.3720   -4.5940   21.1340 C.2    402  SV6402      0.0000
     45 CAN         3.9330   -6.0820   22.5280 C.3    402  SV6402      0.0000
     46 CAO         3.5200   -6.3470   23.9700 C.3    402  SV6402      0.0000
     47 CAP         2.7080   -5.3950   23.1220 C.3    402  SV6402      0.0000
     48 OBR         7.6040   -4.5280   21.8620 O.3    402  SV6402      0.0000
     49 OBS         4.5740   -4.5180   20.1940 O.2    402  SV6402      0.0000
     50 H          12.8227    7.1943   29.4895 H      402  SV6402      0.0000
     51 H          12.8603    9.6677   29.9976 H      402  SV6402      0.0000
     52 H          11.6536   10.5133   26.0449 H      402  SV6402      0.0000
     53 H          11.5074    5.9307   25.8761 H      402  SV6402      0.0000
     54 H          10.2046    6.6243   23.2299 H      402  SV6402      0.0000
     55 H          11.4486    4.7560   22.0934 H      402  SV6402      0.0000
     56 H          12.2516    3.4445   24.0255 H      402  SV6402      0.0000
     57 H          13.3088    4.7845   24.5535 H      402  SV6402      0.0000
     58 H          13.5486    3.1139   21.9790 H      402  SV6402      0.0000
     59 H          14.6613    3.1232   23.3737 H      402  SV6402      0.0000
     60 H          15.5606    4.4600   21.4420 H      402  SV6402      0.0000
     61 H          15.3280    5.4792   22.8928 H      402  SV6402      0.0000
     62 H          13.3697    5.2342   20.4979 H      402  SV6402      0.0000
     63 H          14.4514    6.6164   20.8430 H      402  SV6402      0.0000
     64 H          13.3237    7.0135   23.0315 H      402  SV6402      0.0000
     65 H          12.1631    7.0876   21.6756 H      402  SV6402      0.0000
     66 H           8.9324    4.5713   22.5474 H      402  SV6402      0.0000
     67 H           8.5149    2.8739   25.0361 H      402  SV6402      0.0000
     68 H           4.8855    2.3387   24.4388 H      402  SV6402      0.0000
     69 H           6.2921    1.8605   25.4332 H      402  SV6402      0.0000
     70 H           6.1385    1.2682   23.7572 H      402  SV6402      0.0000
     71 H           5.3701    4.7414   24.9644 H      402  SV6402      0.0000
     72 H           6.9649    5.4616   24.6167 H      402  SV6402      0.0000
     73 H           6.7936    4.2658   25.9368 H      402  SV6402      0.0000
     74 H           5.1530    3.9724   22.5105 H      402  SV6402      0.0000
     75 H           6.3946    2.9395   21.7616 H      402  SV6402      0.0000
     76 H           6.7443    4.6613   22.1014 H      402  SV6402      0.0000
     77 H          10.0407   -0.3479   22.0382 H      402  SV6402      0.0000
     78 H          10.2972   -2.2847   24.2184 H      402  SV6402      0.0000
     79 H          10.7102   -0.9773   26.1631 H      402  SV6402      0.0000
     80 H          12.0252   -1.4046   22.2356 H      402  SV6402      0.0000
     81 H          12.6183   -2.1317   23.7632 H      402  SV6402      0.0000
     82 H          12.4425    0.8377   23.0427 H      402  SV6402      0.0000
     83 H          13.8095   -0.0421   23.8109 H      402  SV6402      0.0000
     84 H           8.6777    0.1271   25.7213 H      402  SV6402      0.0000
     85 H           9.7865    1.5324   25.6929 H      402  SV6402      0.0000
     86 H          12.7663   -0.0096   25.9403 H      402  SV6402      0.0000
     87 H          12.0004    1.4651   25.2848 H      402  SV6402      0.0000
     88 H           5.8621   -5.2673   22.9972 H      402  SV6402      0.0000
     89 H           8.3281   -1.5015   20.8906 H      402  SV6402      0.0000
     90 H           6.1683   -2.5860   22.7999 H      402  SV6402      0.0000
     91 H           7.0596   -3.7016   20.0621 H      402  SV6402      0.0000
     92 H           4.4174   -1.9775   21.4044 H      402  SV6402      0.0000
     93 H           5.4502   -1.9334   19.9594 H      402  SV6402      0.0000
     94 H           6.4975    0.2065   21.5065 H      402  SV6402      0.0000
     95 H           4.7466    0.2651   21.8265 H      402  SV6402      0.0000
     96 H           5.3320    1.5803   19.7653 H      402  SV6402      0.0000
     97 H           4.3114    0.1849   19.3072 H      402  SV6402      0.0000
     98 H           6.0853    0.1433   19.0147 H      402  SV6402      0.0000
     99 H           3.7159   -6.8943   21.8342 H      402  SV6402      0.0000
    100 H           4.1360   -5.8854   24.7368 H      402  SV6402      0.0000
    101 H           3.0667   -7.3163   24.1591 H      402  SV6402      0.0000
    102 H           1.7473   -5.7681   22.7778 H      402  SV6402      0.0000
    103 H           2.8247   -4.3394   23.3520 H      402  SV6402      0.0000
    104 H           7.8777   -5.2953   21.3754 H      402  SV6402      0.0000
@<TRIPOS>BOND
     1     1     4    1
     2     1     5   ar
     3     1     7   ar
     4     2     3   ar
     5     2     7   ar
     6     2    50    1
     7     3     8   ar
     8     3    51    1
     9     4     6    2
    10     4     9    1
    11     5     8   ar
    12     5    52    1
    13     9    10    1
    14     9    53    1
    15    10    11    1
    16    10    13    1
    17    10    54    1
    18    11    12    2
    19    11    19    1
    20    13    14    1
    21    13    18    1
    22    13    55    1
    23    14    15    1
    24    14    56    1
    25    14    57    1
    26    15    16    1
    27    15    58    1
    28    15    59    1
    29    16    17    1
    30    16    60    1
    31    16    61    1
    32    17    18    1
    33    17    62    1
    34    17    63    1
    35    18    64    1
    36    18    65    1
    37    19    20    1
    38    19    66    1
    39    20    21    1
    40    20    25    1
    41    20    67    1
    42    21    22    1
    43    21    23    1
    44    21    24    1
    45    22    68    1
    46    22    69    1
    47    22    70    1
    48    23    71    1
    49    23    72    1
    50    23    73    1
    51    24    74    1
    52    24    75    1
    53    24    76    1
    54    25    26    2
    55    25    28    1
    56    27    29    2
    57    27    30    1
    58    27    38    1
    59    28    30    1
    60    28    35    1
    61    30    31    1
    62    30    77    1
    63    31    32    1
    64    31    33    1
    65    31    78    1
    66    32    35    1
    67    32    36    1
    68    32    79    1
    69    33    34    1
    70    33    80    1
    71    33    81    1
    72    34    36    1
    73    34    82    1
    74    34    83    1
    75    35    84    1
    76    35    85    1
    77    36    86    1
    78    36    87    1
    79    37    44    1
    80    37    45    1
    81    37    88    1
    82    38    39    1
    83    38    89    1
    84    39    40    1
    85    39    41    1
    86    39    90    1
    87    40    44    1
    88    40    48    1
    89    40    91    1
    90    41    42    1
    91    41    92    1
    92    41    93    1
    93    42    43    1
    94    42    94    1
    95    42    95    1
    96    43    96    1
    97    43    97    1
    98    43    98    1
    99    44    49    2
   100    45    46    1
   101    45    47    1
   102    45    99    1
   103    46    47    1
   104    46   100    1
   105    46   101    1
   106    47   102    1
   107    47   103    1
   108    48   104    1

