@<TRIPOS>MOLECULE
EDO_1_M_204
 10 9 0 0 0
SMALL
NO_CHARGES

@<TRIPOS>ATOM
      1 C1         -3.2100    2.3220   32.8820 C.3    204  EDO204      0.0000
      2 O1         -1.8580    2.1010   33.3040 O.3    204  EDO204      0.0000
      3 C2         -3.5050    1.4810   31.6460 C.3    204  EDO204      0.0000
      4 O2         -3.4450    0.0910   31.9830 O.3    204  EDO204      0.0000
      5 H          -3.3479    3.3989   32.6475 H      204  EDO204      0.0000
      6 H          -3.9087    2.0711   33.7076 H      204  EDO204      0.0000
      7 H          -1.6924    2.6299   34.0734 H      204  EDO204      0.0000
      8 H          -2.7688    1.6924   30.8435 H      204  EDO204      0.0000
      9 H          -4.5107    1.7201   31.2406 H      204  EDO204      0.0000
     10 H          -4.1273   -0.1017   32.6129 H      204  EDO204      0.0000
@<TRIPOS>BOND
     1     1     2    1
     2     1     3    1
     3     1     5    1
     4     1     6    1
     5     2     7    1
     6     3     4    1
     7     3     8    1
     8     3     9    1
     9     4    10    1

