@<TRIPOS>MOLECULE
EDO_1_M_203
 10 9 0 0 0
SMALL
NO_CHARGES

@<TRIPOS>ATOM
      1 C1         -7.2990    4.8430   42.8810 C.3    203  EDO203      0.0000
      2 O1         -8.6740    4.7790   42.4860 O.3    203  EDO203      0.0000
      3 C2         -7.1910    5.5260   44.2390 C.3    203  EDO203      0.0000
      4 O2         -7.5940    6.8960   44.1270 O.3    203  EDO203      0.0000
      5 H          -6.7103    5.3895   42.1145 H      203  EDO203      0.0000
      6 H          -6.8881    3.8129   42.9422 H      203  EDO203      0.0000
      7 H          -8.7243    4.3593   41.6369 H      203  EDO203      0.0000
      8 H          -6.1485    5.4779   44.6186 H      203  EDO203      0.0000
      9 H          -7.8350    5.0176   44.9857 H      203  EDO203      0.0000
     10 H          -6.9874    7.3478   43.5554 H      203  EDO203      0.0000
@<TRIPOS>BOND
     1     1     2    1
     2     1     3    1
     3     1     5    1
     4     1     6    1
     5     2     7    1
     6     3     4    1
     7     3     8    1
     8     3     9    1
     9     4    10    1

