EDO_1_A_307
  -ISIS-            3D

 10  9  0  0  0  0  0  0  0  0  1 V2000
   12.4580   -6.4490   16.5750 C   0  0  0  0  0
   13.6660   -5.7890   16.9710 O   0  0  0  0  0
   12.1300   -6.0900   15.1310 C   0  0  0  0  0
   11.0960   -6.9570   14.6510 O   0  0  0  0  0
   11.6253   -6.1754   17.2565 H   0  0  0  0  0
   12.6138   -7.5438   16.6698 H   0  0  0  0  0
   13.4471   -4.9145   17.2646 H   0  0  0  0  0
   13.0311   -6.2102   14.4925 H   0  0  0  0  0
   11.8004   -5.0325   15.0551 H   0  0  0  0  0
   10.9532   -6.7696   13.7325 H   0  0  0  0  0
  1  2  1  0  0  0
  1  3  1  0  0  0
  1  5  1  0  0  0
  1  6  1  0  0  0
  2  7  1  0  0  0
  3  4  1  0  0  0
  3  8  1  0  0  0
  3  9  1  0  0  0
  4 10  1  0  0  0
M  END
$$$$
