EDO_1_A_304
  -ISIS-            3D

 10  9  0  0  0  0  0  0  0  0  1 V2000
    9.8450   -8.0730   -8.4330 C   0  0  0  0  0
   10.5180   -8.5550   -9.6020 O   0  0  0  0  0
   10.8400   -7.3390   -7.5430 C   0  0  0  0  0
   10.1740   -6.8520   -6.3720 O   0  0  0  0  0
    9.4089   -8.9375   -7.8909 H   0  0  0  0  0
    9.0046   -7.4081   -8.7243 H   0  0  0  0  0
   10.5290   -7.8620  -10.2490 H   0  0  0  0  0
   11.2921   -6.4847   -8.0899 H   0  0  0  0  0
   11.6639   -8.0214   -7.2443 H   0  0  0  0  0
   10.8223   -6.4569   -5.8039 H   0  0  0  0  0
  1  2  1  0  0  0
  1  3  1  0  0  0
  1  5  1  0  0  0
  1  6  1  0  0  0
  2  7  1  0  0  0
  3  4  1  0  0  0
  3  8  1  0  0  0
  3  9  1  0  0  0
  4 10  1  0  0  0
M  END
$$$$
