@<TRIPOS>MOLECULE
EDO_1_A_304
 10 9 0 0 0
SMALL
NO_CHARGES

@<TRIPOS>ATOM
      1 C1          9.8450   -8.0730   -8.4330 C.3    304  EDO304      0.0000
      2 O1         10.5180   -8.5550   -9.6020 O.3    304  EDO304      0.0000
      3 C2         10.8400   -7.3390   -7.5430 C.3    304  EDO304      0.0000
      4 O2         10.1740   -6.8520   -6.3720 O.3    304  EDO304      0.0000
      5 H           9.4089   -8.9375   -7.8909 H      304  EDO304      0.0000
      6 H           9.0046   -7.4081   -8.7243 H      304  EDO304      0.0000
      7 H          10.5290   -7.8620  -10.2490 H      304  EDO304      0.0000
      8 H          11.2921   -6.4847   -8.0899 H      304  EDO304      0.0000
      9 H          11.6639   -8.0214   -7.2443 H      304  EDO304      0.0000
     10 H          10.8223   -6.4569   -5.8039 H      304  EDO304      0.0000
@<TRIPOS>BOND
     1     1     2    1
     2     1     3    1
     3     1     5    1
     4     1     6    1
     5     2     7    1
     6     3     4    1
     7     3     8    1
     8     3     9    1
     9     4    10    1

