@<TRIPOS>MOLECULE
EDO_1_A_303
 10 9 0 0 0
SMALL
NO_CHARGES

@<TRIPOS>ATOM
      1 C1         33.6420  -19.4860   10.1760 C.3    303  EDO303      0.0000
      2 O1         34.9010  -18.8050   10.1540 O.3    303  EDO303      0.0000
      3 C2         32.5110  -18.4660   10.2350 C.3    303  EDO303      0.0000
      4 O2         32.6180  -17.6990   11.4400 O.3    303  EDO303      0.0000
      5 H          33.5965  -20.1851   11.0376 H      303  EDO303      0.0000
      6 H          33.5533  -20.0982    9.2547 H      303  EDO303      0.0000
      7 H          35.1628  -18.6557   11.0534 H      303  EDO303      0.0000
      8 H          31.5299  -18.9845   10.2295 H      303  EDO303      0.0000
      9 H          32.5304  -17.7943    9.3510 H      303  EDO303      0.0000
     10 H          33.3008  -17.0544   11.3034 H      303  EDO303      0.0000
@<TRIPOS>BOND
     1     1     2    1
     2     1     3    1
     3     1     5    1
     4     1     6    1
     5     2     7    1
     6     3     4    1
     7     3     8    1
     8     3     9    1
     9     4    10    1

