@<TRIPOS>MOLECULE
EDO_1_A_308
 10 9 0 0 0
SMALL
NO_CHARGES

@<TRIPOS>ATOM
      1 C1         13.0400   10.0090   -9.5190 C.3    308  EDO308      0.0000
      2 O1         11.7460    9.7340   -8.9700 O.3    308  EDO308      0.0000
      3 C2         14.0410   10.2000   -8.3860 C.3    308  EDO308      0.0000
      4 O2         13.6290   11.2940   -7.5590 O.3    308  EDO308      0.0000
      5 H          12.9869   10.9147  -10.1586 H      308  EDO308      0.0000
      6 H          13.3431    9.1628  -10.1693 H      308  EDO308      0.0000
      7 H          11.6260   10.3380   -8.2459 H      308  EDO308      0.0000
      8 H          15.0595   10.3867   -8.7873 H      308  EDO308      0.0000
      9 H          14.1000    9.2825   -7.7643 H      308  EDO308      0.0000
     10 H          14.0096   12.0919   -7.9019 H      308  EDO308      0.0000
@<TRIPOS>BOND
     1     1     2    1
     2     1     3    1
     3     1     5    1
     4     1     6    1
     5     2     7    1
     6     3     4    1
     7     3     8    1
     8     3     9    1
     9     4    10    1

