HQD_1_A_201
  -ISIS-            3D

 21 22  0  0  0  0  0  0  0  0  1 V2000
  -49.9840  -29.1840    7.9530 N   0  0  0  0  0
  -51.3980  -29.4610    7.7990 C   0  0  0  0  0
  -51.9870  -29.5570    6.4450 C   0  0  0  0  0
  -51.1430  -29.3820    5.2460 C   0  0  0  0  0
  -48.8100  -28.9280    4.3240 C   0  0  0  0  0
  -47.4540  -28.6700    4.5280 C   0  0  0  0  0
  -46.9200  -28.5890    5.8400 C   0  0  0  0  0
  -47.7530  -28.7600    6.9480 C   0  0  0  0  0
  -49.1130  -29.0100    6.7460 C   0  0  0  0  0
  -49.6550  -29.0900    5.4390 C   0  0  0  0  0
  -52.2530  -29.6370    9.0400 C   0  0  0  0  0
  -53.3530  -29.8160    6.3200 O   0  0  0  0  0
  -51.5930  -29.4450    4.1520 O   0  0  0  0  0
  -49.2094  -28.9988    3.2991 H   0  0  0  0  0
  -46.7868  -28.5319    3.6604 H   0  0  0  0  0
  -45.8448  -28.3897    5.9836 H   0  0  0  0  0
  -47.3461  -28.6985    7.9704 H   0  0  0  0  0
  -53.3181  -29.8450    8.8018 H   0  0  0  0  0
  -52.2248  -28.7202    9.6693 H   0  0  0  0  0
  -51.8783  -30.4827    9.6578 H   0  0  0  0  0
  -53.5701  -29.8425    5.3963 H   0  0  0  0  0
  1  2  1  0  0  0
  1  9  1  0  0  0
  2  3  1  0  0  0
  2 11  1  0  0  0
  3  4  1  0  0  0
  3 12  1  0  0  0
  4 10  1  0  0  0
  4 13  2  0  0  0
  5  6  2  0  0  0
  5 10  1  0  0  0
  5 14  1  0  0  0
  6  7  1  0  0  0
  6 15  1  0  0  0
  7  8  2  0  0  0
  7 16  1  0  0  0
  8  9  1  0  0  0
  8 17  1  0  0  0
  9 10  2  0  0  0
 11 18  1  0  0  0
 11 19  1  0  0  0
 11 20  1  0  0  0
 12 21  1  0  0  0
M  END
$$$$
