@<TRIPOS>MOLECULE
EDO_1_B_201
 10 9 0 0 0
SMALL
NO_CHARGES

@<TRIPOS>ATOM
      1 C1        112.0720  -22.8790   22.3930 C.3    201  EDO201      0.0000
      2 O1        112.8110  -21.7600   21.8930 O.3    201  EDO201      0.0000
      3 C2        112.6120  -24.1380   21.7180 C.3    201  EDO201      0.0000
      4 O2        113.9630  -23.9050   21.2920 O.3    201  EDO201      0.0000
      5 H         110.9879  -22.7494   22.1938 H      201  EDO201      0.0000
      6 H         112.2114  -22.9460   23.4930 H      201  EDO201      0.0000
      7 H         112.5334  -20.9873   22.3666 H      201  EDO201      0.0000
      8 H         111.9976  -24.3938   20.8291 H      201  EDO201      0.0000
      9 H         112.5800  -25.0091   22.4036 H      201  EDO201      0.0000
     10 H         114.0002  -23.0411   20.9009 H      201  EDO201      0.0000
@<TRIPOS>BOND
     1     1     2    1
     2     1     3    1
     3     1     5    1
     4     1     6    1
     5     2     7    1
     6     3     4    1
     7     3     8    1
     8     3     9    1
     9     4    10    1

