@<TRIPOS>MOLECULE
DMS_1_A_401
 10 9 0 0 0
SMALL
NO_CHARGES

@<TRIPOS>ATOM
      1 S           6.9910  -27.9860   21.5800 S.o    401  DMS401      0.0000
      2 O           7.7140  -27.0650   22.4570 O.2    401  DMS401      0.0000
      3 C1          5.7010  -28.6870   22.5660 C.3    401  DMS401      0.0000
      4 C2          5.9880  -26.9770   20.5510 C.3    401  DMS401      0.0000
      5 H           5.0200  -29.2848   21.9265 H      401  DMS401      0.0000
      6 H           5.1227  -27.8882   23.0746 H      401  DMS401      0.0000
      7 H           6.1459  -29.3533   23.3333 H      401  DMS401      0.0000
      8 H           5.2993  -27.6107   19.9557 H      401  DMS401      0.0000
      9 H           6.6339  -26.4035   19.8549 H      401  DMS401      0.0000
     10 H           5.3962  -26.2639   21.1613 H      401  DMS401      0.0000
@<TRIPOS>BOND
     1     1     2    2
     2     1     3    1
     3     1     4    1
     4     3     5    1
     5     3     6    1
     6     3     7    1
     7     4     8    1
     8     4     9    1
     9     4    10    1

