DMS_1_A_402
  -ISIS-            3D

 10  9  0  0  0  0  0  0  0  0  1 V2000
    6.0810   -1.0230   -6.1810 S   0  0  0  0  0
    7.0180   -0.7870   -7.3120 O   0  0  0  0  0
    7.0660   -0.9830   -4.7060 C   0  0  0  0  0
    5.7430   -2.7540   -6.1520 C   0  0  0  0  0
    6.4537   -1.2912   -3.8339 H   0  0  0  0  0
    7.4302    0.0512   -4.5376 H   0  0  0  0  0
    7.9394   -1.6601   -4.8029 H   0  0  0  0  0
    5.1655   -3.0121   -5.2408 H   0  0  0  0  0
    6.6872   -3.3361   -6.1682 H   0  0  0  0  0
    5.1401   -3.0244   -7.0430 H   0  0  0  0  0
  1  2  2  0  0  0
  1  3  1  0  0  0
  1  4  1  0  0  0
  3  5  1  0  0  0
  3  6  1  0  0  0
  3  7  1  0  0  0
  4  8  1  0  0  0
  4  9  1  0  0  0
  4 10  1  0  0  0
M  END
$$$$
