@<TRIPOS>MOLECULE
4SO_1_A_201
 19 19 0 0 0
SMALL
NO_CHARGES

@<TRIPOS>ATOM
      1 OAA       -46.9280  -27.4000   -1.2450 O.2    201  4SO201      0.0000
      2 OAB       -43.9640  -32.6140    2.5140 O.co2  201  4SO201     -0.5000
      3 CAC       -43.5830  -29.1560    2.0320 C.ar   201  4SO201      0.0000
      4 CAD       -44.1250  -28.1010    1.3220 C.ar   201  4SO201      0.0000
      5 CAE       -45.2320  -28.3630    0.5660 C.ar   201  4SO201      0.0000
      6 SAF       -45.9500  -27.0170   -0.3400 S.o    201  4SO201      0.0000
      7 NAG       -44.7730  -26.2270   -1.1910 N.am   201  4SO201      0.0000
      8 CAH       -43.6500  -31.4880    2.8240 C.2    201  4SO201      0.0000
      9 CAI       -44.2230  -30.3960    1.9990 C.ar   201  4SO201      0.0000
     10 CAJ       -45.3510  -30.6160    1.2330 C.ar   201  4SO201      0.0000
     11 CAK       -45.8410  -29.5660    0.5150 C.ar   201  4SO201      0.0000
     12 OAL       -46.4840  -26.1100    0.6410 O.2    201  4SO201      0.0000
     13 OAM       -42.9120  -31.2120    3.8030 O.co2  201  4SO201     -0.5000
     14 H         -42.6706  -28.9969    2.6306 H      201  4SO201      0.0000
     15 H         -43.6604  -27.1021    1.3664 H      201  4SO201      0.0000
     16 H         -45.8511  -31.5978    1.1987 H      201  4SO201      0.0000
     17 H         -46.7443  -29.7191   -0.0997 H      201  4SO201      0.0000
     18 H         -44.6576  -25.2749   -0.8451 H      201  4SO201      0.0000
     19 H         -44.9971  -26.2146   -2.1849 H      201  4SO201      0.0000
@<TRIPOS>BOND
     1     1     6    2
     2     2     8   ar
     3     3     4   ar
     4     3     9   ar
     5     3    14    1
     6     4     5   ar
     7     4    15    1
     8     5     6    1
     9     5    11   ar
    10     6     7    1
    11     6    12    2
    12     7    18    1
    13     7    19    1
    14     8     9    1
    15     8    13   ar
    16     9    10   ar
    17    10    11   ar
    18    10    16    1
    19    11    17    1

