@<TRIPOS>MOLECULE
DMS_1_A_404
 10 9 0 0 0
SMALL
NO_CHARGES

@<TRIPOS>ATOM
      1 S          21.1040   14.6060    8.0850 S.o    404  DMS404      0.0000
      2 O          22.5580   14.8000    8.0170 O.2    404  DMS404      0.0000
      3 C1         20.9030   13.1050    8.9900 C.3    404  DMS404      0.0000
      4 C2         20.6850   13.9540    6.5010 C.3    404  DMS404      0.0000
      5 H          19.8459   12.7725    8.9402 H      404  DMS404      0.0000
      6 H          21.1699   13.2793   10.0524 H      404  DMS404      0.0000
      7 H          21.5593   12.3089    8.5814 H      404  DMS404      0.0000
      8 H          19.6331   13.6018    6.5036 H      404  DMS404      0.0000
      9 H          21.3550   13.1109    6.2331 H      404  DMS404      0.0000
     10 H          20.7894   14.7514    5.7371 H      404  DMS404      0.0000
@<TRIPOS>BOND
     1     1     2    2
     2     1     3    1
     3     1     4    1
     4     3     5    1
     5     3     6    1
     6     3     7    1
     7     4     8    1
     8     4     9    1
     9     4    10    1

