@<TRIPOS>MOLECULE
DMS_1_A_401
 10 9 0 0 0
SMALL
NO_CHARGES

@<TRIPOS>ATOM
      1 S           7.0220  -28.1300   21.4720 S.o    401  DMS401      0.0000
      2 O           7.6690  -27.0830   22.2530 O.2    401  DMS401      0.0000
      3 C1          5.6970  -28.7090   22.5250 C.3    401  DMS401      0.0000
      4 C2          6.0780  -27.2720   20.2560 C.3    401  DMS401      0.0000
      5 H           5.0437  -29.4015   21.9559 H      401  DMS401      0.0000
      6 H           5.0951  -27.8528   22.8931 H      401  DMS401      0.0000
      7 H           6.1272  -29.2510   23.3920 H      401  DMS401      0.0000
      8 H           5.4205  -27.9859   19.7192 H      401  DMS401      0.0000
      9 H           6.7631  -26.7972   19.5242 H      401  DMS401      0.0000
     10 H           5.4555  -26.4863   20.7314 H      401  DMS401      0.0000
@<TRIPOS>BOND
     1     1     2    2
     2     1     3    1
     3     1     4    1
     4     3     5    1
     5     3     6    1
     6     3     7    1
     7     4     8    1
     8     4     9    1
     9     4    10    1

