@<TRIPOS>MOLECULE
DMS_2_A_402
 10 9 0 0 0
SMALL
NO_CHARGES

@<TRIPOS>ATOM
      1 S          -6.1940   -0.9660    6.2960 S.o    402  DMS402      0.0000
      2 O          -7.1290   -0.6300    7.3720 O.2    402  DMS402      0.0000
      3 C1         -7.2270   -1.0300    4.8460 C.3    402  DMS402      0.0000
      4 C2         -5.8730   -2.6920    6.4630 C.3    402  DMS402      0.0000
      5 H          -6.6470   -1.4320    3.9902 H      402  DMS402      0.0000
      6 H          -7.5720   -0.0060    4.5951 H      402  DMS402      0.0000
      7 H          -8.1109   -1.6756    5.0279 H      402  DMS402      0.0000
      8 H          -5.3117   -3.0575    5.5790 H      402  DMS402      0.0000
      9 H          -6.8234   -3.2571    6.5545 H      402  DMS402      0.0000
     10 H          -5.2611   -2.8665    7.3716 H      402  DMS402      0.0000
@<TRIPOS>BOND
     1     1     2    2
     2     1     3    1
     3     1     4    1
     4     3     5    1
     5     3     6    1
     6     3     7    1
     7     4     8    1
     8     4     9    1
     9     4    10    1

