@<TRIPOS>MOLECULE
DMS_2_A_403
 10 9 0 0 0
SMALL
NO_CHARGES

@<TRIPOS>ATOM
      1 S          -2.3960  -18.8390   -8.0820 S.o    403  DMS403      0.0000
      2 O          -3.6340  -18.7770   -8.9040 O.2    403  DMS403      0.0000
      3 C1         -1.1830  -18.0260   -9.0810 C.3    403  DMS403      0.0000
      4 C2         -1.8020  -20.4690   -8.4480 C.3    403  DMS403      0.0000
      5 H          -0.1683  -18.2132   -8.6738 H      403  DMS403      0.0000
      6 H          -1.3724  -16.9330   -9.0662 H      403  DMS403      0.0000
      7 H          -1.2314  -18.3813  -10.1309 H      403  DMS403      0.0000
      8 H          -0.7692  -20.5916   -8.0623 H      403  DMS403      0.0000
      9 H          -1.8128  -20.6593   -9.5410 H      403  DMS403      0.0000
     10 H          -2.4545  -21.2152   -7.9498 H      403  DMS403      0.0000
@<TRIPOS>BOND
     1     1     2    2
     2     1     3    1
     3     1     4    1
     4     3     5    1
     5     3     6    1
     6     3     7    1
     7     4     8    1
     8     4     9    1
     9     4    10    1

