@<TRIPOS>MOLECULE
BTB_1_A_402
 29 28 0 0 0
SMALL
NO_CHARGES

@<TRIPOS>ATOM
      1 C1         14.7230  -44.4760  -55.6220 C.3    402  BTB402      0.0000
      2 O1         13.6140  -44.4240  -56.4850 O.3    402  BTB402      0.0000
      3 C2         14.5820  -45.5380  -54.5250 C.3    402  BTB402      0.0000
      4 C3         13.5380  -45.1230  -53.4790 C.3    402  BTB402      0.0000
      5 O3         13.8080  -43.8350  -53.0070 O.3    402  BTB402      0.0000
      6 C4         15.9340  -45.6940  -53.8380 C.3    402  BTB402      0.0000
      7 O4         15.7100  -46.5680  -52.7630 O.3    402  BTB402      0.0000
      8 N          14.1610  -46.8600  -55.0180 N.3    402  BTB402      0.0000
      9 C5         12.7140  -46.8670  -55.2000 C.3    402  BTB402      0.0000
     10 C6         12.0740  -48.1840  -54.8380 C.2    402  BTB402      0.0000
     11 O6         11.1300  -48.5090  -55.4730 O.2    402  BTB402      0.0000
     12 C7         14.9460  -47.3570  -56.1470 C.3    402  BTB402      0.0000
     13 C8         14.2220  -47.2430  -57.4810 C.2    402  BTB402      0.0000
     14 O8         13.3930  -48.0140  -57.8060 O.2    402  BTB402      0.0000
     15 H          14.8894  -43.4755  -55.1698 H      402  BTB402      0.0000
     16 H          15.6260  -44.6733  -56.2365 H      402  BTB402      0.0000
     17 H          13.5878  -43.5718  -56.9017 H      402  BTB402      0.0000
     18 H          13.4562  -45.8408  -52.6343 H      402  BTB402      0.0000
     19 H          12.5232  -44.9338  -53.8590 H      402  BTB402      0.0000
     20 H          13.4694  -43.7470  -52.1263 H      402  BTB402      0.0000
     21 H          16.3004  -44.7193  -53.4523 H      402  BTB402      0.0000
     22 H          16.7228  -46.0998  -54.5010 H      402  BTB402      0.0000
     23 H          16.5252  -46.6895  -52.2938 H      402  BTB402      0.0000
     24 H          12.4396  -46.5754  -56.2324 H      402  BTB402      0.0000
     25 H          12.0807  -46.2076  -54.6125 H      402  BTB402      0.0000
     26 H          12.4599  -48.8062  -53.9949 H      402  BTB402      0.0000
     27 H          15.1369  -48.4390  -55.9669 H      402  BTB402      0.0000
     28 H          15.9507  -46.8963  -56.2144 H      402  BTB402      0.0000
     29 H          14.4886  -46.3939  -58.1578 H      402  BTB402      0.0000
@<TRIPOS>BOND
     1     1     2    1
     2     1     3    1
     3     1    15    1
     4     1    16    1
     5     2    17    1
     6     3     4    1
     7     3     6    1
     8     3     8    1
     9     4     5    1
    10     4    18    1
    11     4    19    1
    12     5    20    1
    13     6     7    1
    14     6    21    1
    15     6    22    1
    16     7    23    1
    17     8     9    1
    18     8    12    1
    19     9    10    1
    20     9    24    1
    21     9    25    1
    22    10    11    2
    23    10    26    1
    24    12    13    1
    25    12    27    1
    26    12    28    1
    27    13    14    2
    28    13    29    1

