DMS_2_A_1004
  -ISIS-            3D

 10  9  0  0  0  0  0  0  0  0  1 V2000
   -2.4110  -18.7790   -8.0560 S   0  0  0  0  0
   -3.6510  -18.8290   -8.9010 O   0  0  0  0  0
   -1.2000  -18.0840   -9.1370 C   0  0  0  0  0
   -1.7660  -20.4140   -8.1720 C   0  0  0  0  0
   -0.1891  -18.1848   -8.6914 H   0  0  0  0  0
   -1.4153  -17.0051   -9.2793 H   0  0  0  0  0
   -1.2190  -18.5833  -10.1275 H   0  0  0  0  0
   -0.7392  -20.4492   -7.7537 H   0  0  0  0  0
   -1.7476  -20.7601   -9.2259 H   0  0  0  0  0
   -2.4081  -21.1017   -7.5843 H   0  0  0  0  0
  1  2  2  0  0  0
  1  3  1  0  0  0
  1  4  1  0  0  0
  3  5  1  0  0  0
  3  6  1  0  0  0
  3  7  1  0  0  0
  4  8  1  0  0  0
  4  9  1  0  0  0
  4 10  1  0  0  0
M  END
$$$$
