@<TRIPOS>MOLECULE
DMS_1_A_1006
 10 9 0 0 0
SMALL
NO_CHARGES

@<TRIPOS>ATOM
      1 S          21.1710   14.6590    7.7410 S.o   1006  DMS1006      0.0000
      2 O          22.6330   14.7590    7.8530 O.2   1006  DMS1006      0.0000
      3 C1         20.7350   13.3600    8.8490 C.3   1006  DMS1006      0.0000
      4 C2         20.9100   13.7460    6.2560 C.3   1006  DMS1006      0.0000
      5 H          19.6710   13.0811    8.7055 H     1006  DMS1006      0.0000
      6 H          20.8715   13.7079    9.8935 H     1006  DMS1006      0.0000
      7 H          21.3750   12.4692    8.6823 H     1006  DMS1006      0.0000
      8 H          19.8421   13.4579    6.1715 H     1006  DMS1006      0.0000
      9 H          21.5402   12.8331    6.2395 H     1006  DMS1006      0.0000
     10 H          21.1753   14.3795    5.3849 H     1006  DMS1006      0.0000
@<TRIPOS>BOND
     1     1     2    2
     2     1     3    1
     3     1     4    1
     4     3     5    1
     5     3     6    1
     6     3     7    1
     7     4     8    1
     8     4     9    1
     9     4    10    1

