@<TRIPOS>MOLECULE
DMS_1_A_1005
 10 9 0 0 0
SMALL
NO_CHARGES

@<TRIPOS>ATOM
      1 S           5.5170    0.2010   18.2470 S.o   1005  DMS1005      0.0000
      2 O           4.7620    1.3990   18.6590 O.2   1005  DMS1005      0.0000
      3 C1          6.1760   -0.4470   19.7580 C.3   1005  DMS1005      0.0000
      4 C2          7.0120    0.8320   17.5920 C.3   1005  DMS1005      0.0000
      5 H           6.9054   -1.2526   19.5361 H     1005  DMS1005      0.0000
      6 H           5.3509   -0.8713   20.3661 H     1005  DMS1005      0.0000
      7 H           6.6771    0.3536   20.3403 H     1005  DMS1005      0.0000
      8 H           7.7263    0.0027   17.4127 H     1005  DMS1005      0.0000
      9 H           7.4682    1.5642   18.2898 H     1005  DMS1005      0.0000
     10 H           6.8071    1.3377   16.6261 H     1005  DMS1005      0.0000
@<TRIPOS>BOND
     1     1     2    2
     2     1     3    1
     3     1     4    1
     4     3     5    1
     5     3     6    1
     6     3     7    1
     7     4     8    1
     8     4     9    1
     9     4    10    1

