@<TRIPOS>MOLECULE
DMS_2_A_1004
 10 9 0 0 0
SMALL
NO_CHARGES

@<TRIPOS>ATOM
      1 S          -2.4110  -18.7790   -8.0560 S.o   1004  DMS1004      0.0000
      2 O          -3.6510  -18.8290   -8.9010 O.2   1004  DMS1004      0.0000
      3 C1         -1.2000  -18.0840   -9.1370 C.3   1004  DMS1004      0.0000
      4 C2         -1.7660  -20.4140   -8.1720 C.3   1004  DMS1004      0.0000
      5 H          -0.1891  -18.1848   -8.6914 H     1004  DMS1004      0.0000
      6 H          -1.4153  -17.0051   -9.2793 H     1004  DMS1004      0.0000
      7 H          -1.2190  -18.5833  -10.1275 H     1004  DMS1004      0.0000
      8 H          -0.7392  -20.4492   -7.7537 H     1004  DMS1004      0.0000
      9 H          -1.7476  -20.7601   -9.2259 H     1004  DMS1004      0.0000
     10 H          -2.4081  -21.1017   -7.5843 H     1004  DMS1004      0.0000
@<TRIPOS>BOND
     1     1     2    2
     2     1     3    1
     3     1     4    1
     4     3     5    1
     5     3     6    1
     6     3     7    1
     7     4     8    1
     8     4     9    1
     9     4    10    1

