@<TRIPOS>MOLECULE
K36_1_A_401
 60 61 0 0 0
SMALL
NO_CHARGES

@<TRIPOS>ATOM
      1 C7          8.9490   25.8170   25.9560 C.3    401  K36401      0.0000
      2 O8         10.1040   25.4130   26.6870 O.3    401  K36401      0.0000
      3 C9         10.4800   24.0840   26.6130 C.2    401  K36401      0.0000
      4 O10        10.0220   23.3470   25.7700 O.2    401  K36401      0.0000
      5 C1          7.5900   25.8080   26.7460 C.ar   401  K36401      0.0000
      6 C2          7.4870   25.3410   28.0690 C.ar   401  K36401      0.0000
      7 C3          6.2720   25.3350   28.7660 C.ar   401  K36401      0.0000
      8 C4          5.0920   25.8020   28.1690 C.ar   401  K36401      0.0000
      9 C5          5.1630   26.2800   26.8590 C.ar   401  K36401      0.0000
     10 C6          6.3790   26.2850   26.1630 C.ar   401  K36401      0.0000
     11 N11        11.3900   23.6000   27.5470 N.am   401  K36401      0.0000
     12 C12        11.6310   22.1330   27.6700 C.3    401  K36401      0.0000
     13 C17        10.3360   21.5070   28.1700 C.2    401  K36401      0.0000
     14 O18         9.6740   22.1400   28.9820 O.2    401  K36401      0.0000
     15 C13        12.7420   21.7880   28.6550 C.3    401  K36401      0.0000
     16 C14        14.1170   22.2370   28.2210 C.3    401  K36401      0.0000
     17 C15        15.1890   22.1020   29.3700 C.3    401  K36401      0.0000
     18 C16        14.5800   21.4450   27.0080 C.3    401  K36401      0.0000
     19 N19         9.8890   20.2860   27.7180 N.am   401  K36401      0.0000
     20 C20         8.6510   19.6970   28.2070 C.3    401  K36401      0.0000
     21 C21         8.9440   18.3330   28.8260 C.3    401  K36401      0.0000
     22 O22         7.7000   17.8030   29.2370 O.3    401  K36401      0.0000
     23 C24         7.5540   19.6220   27.0390 C.3    401  K36401      0.0000
     24 C25         7.1480   21.0170   26.4880 C.3    401  K36401      0.0000
     25 C26         6.3380   21.8460   27.4990 C.3    401  K36401      0.0000
     26 C27         5.1590   22.4860   26.6900 C.3    401  K36401      0.0000
     27 N28         5.0630   21.6780   25.5030 N.am   401  K36401      0.0000
     28 C29         6.1340   20.8470   25.3240 C.2    401  K36401      0.0000
     29 O30         6.2150   20.1080   24.3860 O.2    401  K36401      0.0000
     30 H           8.8167   25.2233   25.0283 H      401  K36401      0.0000
     31 H           9.1136   26.8602   25.6122 H      401  K36401      0.0000
     32 H           8.3889   24.9620   28.5788 H      401  K36401      0.0000
     33 H           6.2435   24.9550   29.8017 H      401  K36401      0.0000
     34 H           4.1369   25.7938   28.7201 H      401  K36401      0.0000
     35 H           4.2506   26.6574   26.3662 H      401  K36401      0.0000
     36 H           6.3993   26.6689   25.1284 H      401  K36401      0.0000
     37 H          11.8380   24.2659   28.1885 H      401  K36401      0.0000
     38 H          11.8634   21.6986   26.6710 H      401  K36401      0.0000
     39 H          12.7541   20.6870   28.8300 H      401  K36401      0.0000
     40 H          12.5006   22.2512   29.6401 H      401  K36401      0.0000
     41 H          14.0731   23.3174   27.9401 H      401  K36401      0.0000
     42 H          16.1868   22.4710   29.0430 H      401  K36401      0.0000
     43 H          15.3108   21.0440   29.6932 H      401  K36401      0.0000
     44 H          14.8977   22.6940   30.2663 H      401  K36401      0.0000
     45 H          15.6122   21.7322   26.7064 H      401  K36401      0.0000
     46 H          13.9396   21.6149   26.1155 H      401  K36401      0.0000
     47 H          14.5937   20.3495   27.2036 H      401  K36401      0.0000
     48 H          10.4382   19.7833   27.0075 H      401  K36401      0.0000
     49 H           8.2103   20.3251   29.0164 H      401  K36401      0.0000
     50 H           9.6272   18.4304   29.6973 H      401  K36401      0.0000
     51 H           9.4175   17.6538   28.0849 H      401  K36401      0.0000
     52 H           7.8499   16.9590   29.6416 H      401  K36401      0.0000
     53 H           6.6447   19.0929   27.4042 H      401  K36401      0.0000
     54 H           7.9696   19.0049   26.2092 H      401  K36401      0.0000
     55 H           8.0306   21.5848   26.1170 H      401  K36401      0.0000
     56 H           6.9644   22.6167   27.9976 H      401  K36401      0.0000
     57 H           5.9175   21.1886   28.2939 H      401  K36401      0.0000
     58 H           5.3999   23.5394   26.4296 H      401  K36401      0.0000
     59 H           4.2194   22.4833   27.2864 H      401  K36401      0.0000
     60 H           4.2809   21.7071   24.8365 H      401  K36401      0.0000
@<TRIPOS>BOND
     1     1     2    1
     2     1     5    1
     3     1    30    1
     4     1    31    1
     5     2     3    1
     6     3     4    2
     7     3    11    1
     8     5     6   ar
     9     5    10   ar
    10     6     7   ar
    11     6    32    1
    12     7     8   ar
    13     7    33    1
    14     8     9   ar
    15     8    34    1
    16     9    10   ar
    17     9    35    1
    18    10    36    1
    19    11    12    1
    20    11    37    1
    21    12    13    1
    22    12    15    1
    23    12    38    1
    24    13    14    2
    25    13    19    1
    26    15    16    1
    27    15    39    1
    28    15    40    1
    29    16    17    1
    30    16    18    1
    31    16    41    1
    32    17    42    1
    33    17    43    1
    34    17    44    1
    35    18    45    1
    36    18    46    1
    37    18    47    1
    38    19    20    1
    39    19    48    1
    40    20    21    1
    41    20    23    1
    42    20    49    1
    43    21    22    1
    44    21    50    1
    45    21    51    1
    46    22    52    1
    47    23    24    1
    48    23    53    1
    49    23    54    1
    50    24    25    1
    51    24    28    1
    52    24    55    1
    53    25    26    1
    54    25    56    1
    55    25    57    1
    56    26    27    1
    57    26    58    1
    58    26    59    1
    59    27    28    1
    60    27    60    1
    61    28    29    2

