@<TRIPOS>MOLECULE
DMS_2_A_401
 10 9 0 0 0
SMALL
NO_CHARGES

@<TRIPOS>ATOM
      1 S          -7.2550  -28.1230  -21.2600 S.o    401  DMS401      0.0000
      2 O          -7.8690  -27.3100  -22.3300 O.2    401  DMS401      0.0000
      3 C1         -6.0440  -29.1140  -22.0880 C.3    401  DMS401      0.0000
      4 C2         -6.1210  -27.0860  -20.4020 C.3    401  DMS401      0.0000
      5 H          -5.4306  -29.6618  -21.3437 H      401  DMS401      0.0000
      6 H          -5.3841  -28.4807  -22.7159 H      401  DMS401      0.0000
      7 H          -6.5570  -29.8525  -22.7377 H      401  DMS401      0.0000
      8 H          -5.5152  -27.6896  -19.6956 H      401  DMS401      0.0000
      9 H          -6.6851  -26.3249  -19.8250 H      401  DMS401      0.0000
     10 H          -5.4483  -26.5677  -21.1158 H      401  DMS401      0.0000
@<TRIPOS>BOND
     1     1     2    2
     2     1     3    1
     3     1     4    1
     4     3     5    1
     5     3     6    1
     6     3     7    1
     7     4     8    1
     8     4     9    1
     9     4    10    1

