@<TRIPOS>MOLECULE
FMT_1_A_7109
 4 3 0 0 0
SMALL
NO_CHARGES

@<TRIPOS>ATOM
      1 C          99.4980    9.2340  -15.7420 C.2   7109  FMT7109      0.0000
      2 O1         98.6950    9.2510  -16.6540 O.2   7109  FMT7109     -0.5000
      3 O2         99.5340   10.0980  -14.7690 O.3   7109  FMT7109     -0.5000
      4 H         100.2887    8.3931  -15.7323 H     7109  FMT7109      0.0000
@<TRIPOS>BOND
     1     1     2   ar
     2     1     3   ar
     3     1     4    1

