@<TRIPOS>MOLECULE
FMT_1_A_7107
 4 3 0 0 0
SMALL
NO_CHARGES

@<TRIPOS>ATOM
      1 C         105.1120   29.9750    3.7660 C.2   7107  FMT7107      0.0000
      2 O1        104.3560   29.7810    4.6950 O.2   7107  FMT7107     -0.5000
      3 O2        104.9040   29.5860    2.5430 O.3   7107  FMT7107     -0.5000
      4 H         106.0916   30.5477    3.9778 H     7107  FMT7107      0.0000
@<TRIPOS>BOND
     1     1     2   ar
     2     1     3   ar
     3     1     4    1

