@<TRIPOS>MOLECULE
FMT_1_A_7106
 3 2 0 0 0
SMALL
NO_CHARGES

@<TRIPOS>ATOM
      1 C          81.7690   25.9360   12.4280 C.2   7106  FMT7106      0.0000
      2 O1         82.7040   26.6550   12.7170 O.2   7106  FMT7106      0.0000
      3 O2         81.8750   24.7580   11.8890 O.2   7106  FMT7106     -0.5000
@<TRIPOS>BOND
     1     1     2   ar
     2     1     3   ar

