@<TRIPOS>MOLECULE
FMT_1_A_7108
 3 2 0 0 0
SMALL
NO_CHARGES

@<TRIPOS>ATOM
      1 C          95.9540    6.2520   -4.4120 C.2   7108  FMT7108      0.0000
      2 O1         96.5340    6.2080   -3.3470 O.2   7108  FMT7108      0.0000
      3 O2         96.1360    5.4190   -5.3920 O.2   7108  FMT7108     -0.5000
@<TRIPOS>BOND
     1     1     2   ar
     2     1     3   ar

