FMT_1_A_7107
  -ISIS-            3D

  4  3  0  0  0  0  0  0  0  0  1 V2000
  105.1120   29.9750    3.7660 C   0  0  0  0  0
  104.3560   29.7810    4.6950 O   0  0  0  0  0
  104.9040   29.5860    2.5430 O   0  0  0  0  0
  106.0916   30.5477    3.9778 H   0  0  0  0  0
  1  2  2  0  0  0
  1  3  1  0  0  0
  1  4  1  0  0  0
M  END
$$$$
