DMS_1_A_401
  -ISIS-            3D

 10  9  0  0  0  0  0  0  0  0  1 V2000
    5.9900   -1.0370   -6.6520 S   0  0  0  0  0
    7.1110   -0.8050   -7.6160 O   0  0  0  0  0
    6.6480   -0.9980   -4.9620 C   0  0  0  0  0
    5.4040   -2.7530   -6.7520 C   0  0  0  0  0
    5.8330   -1.2158   -4.2419 H   0  0  0  0  0
    7.0607    0.0101   -4.7532 H   0  0  0  0  0
    7.4521   -1.7545   -4.8544 H   0  0  0  0  0
    4.6180   -2.9213   -5.9877 H   0  0  0  0  0
    6.2498   -3.4491   -6.5768 H   0  0  0  0  0
    4.9795   -2.9358   -7.7603 H   0  0  0  0  0
  1  2  2  0  0  0
  1  3  1  0  0  0
  1  4  1  0  0  0
  3  5  1  0  0  0
  3  6  1  0  0  0
  3  7  1  0  0  0
  4  8  1  0  0  0
  4  9  1  0  0  0
  4 10  1  0  0  0
M  END
$$$$
