@<TRIPOS>MOLECULE
DMS_1_A_401
 10 9 0 0 0
SMALL
NO_CHARGES

@<TRIPOS>ATOM
      1 S           5.9900   -1.0370   -6.6520 S.o    401  DMS401      0.0000
      2 O           7.1110   -0.8050   -7.6160 O.2    401  DMS401      0.0000
      3 C1          6.6480   -0.9980   -4.9620 C.3    401  DMS401      0.0000
      4 C2          5.4040   -2.7530   -6.7520 C.3    401  DMS401      0.0000
      5 H           5.8330   -1.2158   -4.2419 H      401  DMS401      0.0000
      6 H           7.0607    0.0101   -4.7532 H      401  DMS401      0.0000
      7 H           7.4521   -1.7545   -4.8544 H      401  DMS401      0.0000
      8 H           4.6180   -2.9213   -5.9877 H      401  DMS401      0.0000
      9 H           6.2498   -3.4491   -6.5768 H      401  DMS401      0.0000
     10 H           4.9795   -2.9358   -7.7603 H      401  DMS401      0.0000
@<TRIPOS>BOND
     1     1     2    2
     2     1     3    1
     3     1     4    1
     4     3     5    1
     5     3     6    1
     6     3     7    1
     7     4     8    1
     8     4     9    1
     9     4    10    1

