DMS_1_A_402
  -ISIS-            3D

 10  9  0  0  0  0  0  0  0  0  1 V2000
    6.5390    0.1100   18.3090 S   0  0  0  0  0
    7.5810    0.6830   17.4020 O   0  0  0  0  0
    5.3710    1.4280   18.7490 C   0  0  0  0  0
    7.2640   -0.2380   19.9380 C   0  0  0  0  0
    4.6281    1.0380   19.4744 H   0  0  0  0  0
    4.8442    1.7700   17.8347 H   0  0  0  0  0
    5.9186    2.2813   19.1990 H   0  0  0  0  0
    6.4708   -0.5883   20.6296 H   0  0  0  0  0
    7.7340    0.6810   20.3444 H   0  0  0  0  0
    8.0339   -1.0296   19.8335 H   0  0  0  0  0
  1  2  2  0  0  0
  1  3  1  0  0  0
  1  4  1  0  0  0
  3  5  1  0  0  0
  3  6  1  0  0  0
  3  7  1  0  0  0
  4  8  1  0  0  0
  4  9  1  0  0  0
  4 10  1  0  0  0
M  END
$$$$
