@<TRIPOS>MOLECULE
DMS_1_A_402
 10 9 0 0 0
SMALL
NO_CHARGES

@<TRIPOS>ATOM
      1 S           6.5390    0.1100   18.3090 S.o    402  DMS402      0.0000
      2 O           7.5810    0.6830   17.4020 O.2    402  DMS402      0.0000
      3 C1          5.3710    1.4280   18.7490 C.3    402  DMS402      0.0000
      4 C2          7.2640   -0.2380   19.9380 C.3    402  DMS402      0.0000
      5 H           4.6281    1.0380   19.4744 H      402  DMS402      0.0000
      6 H           4.8442    1.7700   17.8347 H      402  DMS402      0.0000
      7 H           5.9186    2.2813   19.1990 H      402  DMS402      0.0000
      8 H           6.4708   -0.5883   20.6296 H      402  DMS402      0.0000
      9 H           7.7340    0.6810   20.3444 H      402  DMS402      0.0000
     10 H           8.0339   -1.0296   19.8335 H      402  DMS402      0.0000
@<TRIPOS>BOND
     1     1     2    2
     2     1     3    1
     3     1     4    1
     4     3     5    1
     5     3     6    1
     6     3     7    1
     7     4     8    1
     8     4     9    1
     9     4    10    1

