@<TRIPOS>MOLECULE
BDF_1_B_4402
 24 24 0 0 0
SMALL
NO_CHARGES

@<TRIPOS>ATOM
      1 C1         64.7620   20.4200   19.5800 C.3   4402  BDF4402      0.0000
      2 C2         65.1050   21.3920   20.7030 C.3   4402  BDF4402      0.0000
      3 C3         66.6160   21.6580   20.8130 C.3   4402  BDF4402      0.0000
      4 C4         66.8970   22.5630   22.0080 C.3   4402  BDF4402      0.0000
      5 C5         66.3520   21.9250   23.2750 C.3   4402  BDF4402      0.0000
      6 C6         64.8830   21.5850   23.0910 C.3   4402  BDF4402      0.0000
      7 O1         65.5380   19.2320   19.6670 O.3   4402  BDF4402      0.0000
      8 O2         64.4360   22.6070   20.4820 O.3   4402  BDF4402      0.0000
      9 O3         67.0910   22.2480   19.6100 O.3   4402  BDF4402      0.0000
     10 O4         68.3000   22.7970   22.1280 O.3   4402  BDF4402      0.0000
     11 O5         67.0760   20.7290   23.5780 O.3   4402  BDF4402      0.0000
     12 O6         64.6560   20.7840   21.9160 O.3   4402  BDF4402      0.0000
     13 H          64.9531   20.8859   18.5925 H     4402  BDF4402      0.0000
     14 H          63.6846   20.1555   19.5978 H     4402  BDF4402      0.0000
     15 H          67.1520   20.6978   20.9596 H     4402  BDF4402      0.0000
     16 H          66.3924   23.5426   21.8579 H     4402  BDF4402      0.0000
     17 H          66.4583   22.6353   24.1241 H     4402  BDF4402      0.0000
     18 H          64.2719   22.5095   23.0350 H     4402  BDF4402      0.0000
     19 H          64.5108   21.0251   23.9738 H     4402  BDF4402      0.0000
     20 H          65.3968   18.8638   20.5315 H     4402  BDF4402      0.0000
     21 H          63.5025   22.4468   20.4630 H     4402  BDF4402      0.0000
     22 H          66.4477   22.8946   19.3414 H     4402  BDF4402      0.0000
     23 H          68.6249   22.9480   21.2482 H     4402  BDF4402      0.0000
     24 H          67.9977   20.9494   23.5058 H     4402  BDF4402      0.0000
@<TRIPOS>BOND
     1     1     2    1
     2     1     7    1
     3     1    13    1
     4     1    14    1
     5     2     3    1
     6     2     8    1
     7     2    12    1
     8     3     4    1
     9     3     9    1
    10     3    15    1
    11     4     5    1
    12     4    10    1
    13     4    16    1
    14     5     6    1
    15     5    11    1
    16     5    17    1
    17     6    12    1
    18     6    18    1
    19     6    19    1
    20     7    20    1
    21     8    21    1
    22     9    22    1
    23    10    23    1
    24    11    24    1

