@<TRIPOS>MOLECULE
DMS_2_A_401
 10 9 0 0 0
SMALL
NO_CHARGES

@<TRIPOS>ATOM
      1 S          -7.2450  -28.1540  -21.5870 S.o    401  DMS401      0.0000
      2 O          -7.8830  -27.0330  -22.3170 O.2    401  DMS401      0.0000
      3 C1         -5.8480  -28.6820  -22.5560 C.3    401  DMS401      0.0000
      4 C2         -6.3340  -27.4520  -20.2440 C.3    401  DMS401      0.0000
      5 H          -5.2614  -29.4358  -21.9920 H      401  DMS401      0.0000
      6 H          -5.1994  -27.8166  -22.8031 H      401  DMS401      0.0000
      7 H          -6.2098  -29.1423  -23.4982 H      401  DMS401      0.0000
      8 H          -5.7341  -28.2386  -19.7423 H      401  DMS401      0.0000
      9 H          -7.0418  -27.0195  -19.5075 H      401  DMS401      0.0000
     10 H          -5.6604  -26.6499  -20.6094 H      401  DMS401      0.0000
@<TRIPOS>BOND
     1     1     2    2
     2     1     3    1
     3     1     4    1
     4     3     5    1
     5     3     6    1
     6     3     7    1
     7     4     8    1
     8     4     9    1
     9     4    10    1

