DMS_2_A_405
  -ISIS-            3D

 10  9  0  0  0  0  0  0  0  0  1 V2000
   -6.3030    0.7250  -18.3710 S   0  0  0  0  0
   -6.5700    1.2370  -16.9930 O   0  0  0  0  0
   -4.8880    1.6070  -18.9780 C   0  0  0  0  0
   -5.5330   -0.8440  -18.1660 C   0  0  0  0  0
   -4.5562    1.1699  -19.9419 H   0  0  0  0  0
   -4.0572    1.5586  -18.2444 H   0  0  0  0  0
   -5.1618    2.6692  -19.1428 H   0  0  0  0  0
   -5.1826   -1.2243  -19.1473 H   0  0  0  0  0
   -6.2678   -1.5622  -17.7481 H   0  0  0  0  0
   -4.6712   -0.7669  -17.4717 H   0  0  0  0  0
  1  2  2  0  0  0
  1  3  1  0  0  0
  1  4  1  0  0  0
  3  5  1  0  0  0
  3  6  1  0  0  0
  3  7  1  0  0  0
  4  8  1  0  0  0
  4  9  1  0  0  0
  4 10  1  0  0  0
M  END
$$$$
