@<TRIPOS>MOLECULE
DMS_2_A_402
 10 9 0 0 0
SMALL
NO_CHARGES

@<TRIPOS>ATOM
      1 S          -6.1220   -0.9350    6.3270 S.o    402  DMS402      0.0000
      2 O          -7.0910   -0.6910    7.4450 O.2    402  DMS402      0.0000
      3 C1         -7.0660   -0.7790    4.8210 C.3    402  DMS402      0.0000
      4 C2         -5.8600   -2.6860    6.2600 C.3    402  DMS402      0.0000
      5 H          -6.4446   -1.0849    3.9545 H      402  DMS402      0.0000
      6 H          -7.3700    0.2794    4.6880 H      402  DMS402      0.0000
      7 H          -7.9748   -1.4130    4.8673 H      402  DMS402      0.0000
      8 H          -5.2662   -2.9440    5.3591 H      402  DMS402      0.0000
      9 H          -6.8304   -3.2220    6.2290 H      402  DMS402      0.0000
     10 H          -5.2994   -3.0075    7.1616 H      402  DMS402      0.0000
@<TRIPOS>BOND
     1     1     2    2
     2     1     3    1
     3     1     4    1
     4     3     5    1
     5     3     6    1
     6     3     7    1
     7     4     8    1
     8     4     9    1
     9     4    10    1

