@<TRIPOS>MOLECULE
DMS_1_A_405
 10 9 0 0 0
SMALL
NO_CHARGES

@<TRIPOS>ATOM
      1 S           6.3030    0.7250   18.3710 S.o    405  DMS405      0.0000
      2 O           6.5700    1.2370   16.9930 O.2    405  DMS405      0.0000
      3 C1          4.8880    1.6070   18.9780 C.3    405  DMS405      0.0000
      4 C2          5.5330   -0.8440   18.1660 C.3    405  DMS405      0.0000
      5 H           4.5562    1.1699   19.9419 H      405  DMS405      0.0000
      6 H           4.0572    1.5586   18.2444 H      405  DMS405      0.0000
      7 H           5.1618    2.6692   19.1428 H      405  DMS405      0.0000
      8 H           5.1826   -1.2243   19.1473 H      405  DMS405      0.0000
      9 H           6.2678   -1.5622   17.7481 H      405  DMS405      0.0000
     10 H           4.6712   -0.7669   17.4717 H      405  DMS405      0.0000
@<TRIPOS>BOND
     1     1     2    2
     2     1     3    1
     3     1     4    1
     4     3     5    1
     5     3     6    1
     6     3     7    1
     7     4     8    1
     8     4     9    1
     9     4    10    1

