@<TRIPOS>MOLECULE
HQD_1_A_201
 21 22 0 0 0
SMALL
NO_CHARGES

@<TRIPOS>ATOM
      1 N1        -49.9840  -29.1840    7.9530 N.ar   201  HQD201      0.0000
      2 C2        -51.3980  -29.4610    7.7990 C.ar   201  HQD201      0.0000
      3 C3        -51.9870  -29.5570    6.4450 C.ar   201  HQD201      0.0000
      4 C4        -51.1430  -29.3820    5.2460 C.ar   201  HQD201      0.0000
      5 C5        -48.8100  -28.9280    4.3240 C.ar   201  HQD201      0.0000
      6 C6        -47.4540  -28.6700    4.5280 C.ar   201  HQD201      0.0000
      7 C7        -46.9200  -28.5890    5.8400 C.ar   201  HQD201      0.0000
      8 C8        -47.7530  -28.7600    6.9480 C.ar   201  HQD201      0.0000
      9 C9        -49.1130  -29.0100    6.7460 C.ar   201  HQD201      0.0000
     10 C10       -49.6550  -29.0900    5.4390 C.ar   201  HQD201      0.0000
     11 C         -52.2530  -29.6370    9.0400 C.3    201  HQD201      0.0000
     12 O3        -53.3530  -29.8160    6.3200 O.3    201  HQD201      0.0000
     13 O13       -51.5930  -29.4450    4.1520 O.2    201  HQD201      0.0000
     14 H         -49.2094  -28.9988    3.2991 H      201  HQD201      0.0000
     15 H         -46.7868  -28.5319    3.6604 H      201  HQD201      0.0000
     16 H         -45.8448  -28.3897    5.9836 H      201  HQD201      0.0000
     17 H         -47.3461  -28.6985    7.9704 H      201  HQD201      0.0000
     18 H         -53.3181  -29.8450    8.8018 H      201  HQD201      0.0000
     19 H         -52.2248  -28.7202    9.6693 H      201  HQD201      0.0000
     20 H         -51.8783  -30.4827    9.6578 H      201  HQD201      0.0000
     21 H         -53.5701  -29.8425    5.3963 H      201  HQD201      0.0000
@<TRIPOS>BOND
     1     1     2   ar
     2     1     9   ar
     3     2     3   ar
     4     2    11    1
     5     3     4   ar
     6     3    12    1
     7     4    10   ar
     8     4    13    2
     9     5     6   ar
    10     5    10   ar
    11     5    14    1
    12     6     7   ar
    13     6    15    1
    14     7     8   ar
    15     7    16    1
    16     8     9   ar
    17     8    17    1
    18     9    10   ar
    19    11    18    1
    20    11    19    1
    21    11    20    1
    22    12    21    1

