DMS_2_A_403
  -ISIS-            3D

 10  9  0  0  0  0  0  0  0  0  1 V2000
   -2.3740  -18.9800   -8.0080 S   0  0  0  0  0
   -3.7210  -18.5310   -8.5430 O   0  0  0  0  0
   -1.1410  -18.0580   -8.9060 C   0  0  0  0  0
   -2.0620  -20.5700   -8.7560 C   0  0  0  0  0
   -0.1308  -18.4495   -8.6673 H   0  0  0  0  0
   -1.1921  -16.9912   -8.6063 H   0  0  0  0  0
   -1.3201  -18.1355   -9.9978 H   0  0  0  0  0
   -1.0279  -20.8980   -8.5243 H   0  0  0  0  0
   -2.1948  -20.5121   -9.8556 H   0  0  0  0  0
   -2.7746  -21.3137   -8.3444 H   0  0  0  0  0
  1  2  2  0  0  0
  1  3  1  0  0  0
  1  4  1  0  0  0
  3  5  1  0  0  0
  3  6  1  0  0  0
  3  7  1  0  0  0
  4  8  1  0  0  0
  4  9  1  0  0  0
  4 10  1  0  0  0
M  END
$$$$
