@<TRIPOS>MOLECULE
DMS_1_A_401
 10 9 0 0 0
SMALL
NO_CHARGES

@<TRIPOS>ATOM
      1 S           6.9640  -28.0840   21.4140 S.o    401  DMS401      0.0000
      2 O           7.7420  -27.0870   22.1990 O.2    401  DMS401      0.0000
      3 C1          5.6900  -28.6830   22.4980 C.3    401  DMS401      0.0000
      4 C2          5.9420  -27.1610   20.3120 C.3    401  DMS401      0.0000
      5 H           4.9882  -29.3295   21.9324 H      401  DMS401      0.0000
      6 H           5.1324  -27.8346   22.9455 H      401  DMS401      0.0000
      7 H           6.1513  -29.2806   23.3105 H      401  DMS401      0.0000
      8 H           5.2347  -27.8411   19.7948 H      401  DMS401      0.0000
      9 H           6.5777  -26.6624   19.5520 H      401  DMS401      0.0000
     10 H           5.3713  -26.3883   20.8672 H      401  DMS401      0.0000
@<TRIPOS>BOND
     1     1     2    2
     2     1     3    1
     3     1     4    1
     4     3     5    1
     5     3     6    1
     6     3     7    1
     7     4     8    1
     8     4     9    1
     9     4    10    1

