DMS_2_A_402
  -ISIS-            3D

 10  9  0  0  0  0  0  0  0  0  1 V2000
   -6.0710   -1.0520    6.2900 S   0  0  0  0  0
   -7.0110   -0.9450    7.4500 O   0  0  0  0  0
   -7.0850   -0.9200    4.8220 C   0  0  0  0  0
   -5.6610   -2.7590    6.1340 C   0  0  0  0  0
   -6.4725   -1.1325    3.9220 H   0  0  0  0  0
   -7.4865    0.1114    4.7471 H   0  0  0  0  0
   -7.9317   -1.6351    4.8720 H   0  0  0  0  0
   -5.0834   -2.9250    5.2017 H   0  0  0  0  0
   -6.5805   -3.3793    6.1137 H   0  0  0  0  0
   -5.0383   -3.0675    6.9986 H   0  0  0  0  0
  1  2  2  0  0  0
  1  3  1  0  0  0
  1  4  1  0  0  0
  3  5  1  0  0  0
  3  6  1  0  0  0
  3  7  1  0  0  0
  4  8  1  0  0  0
  4  9  1  0  0  0
  4 10  1  0  0  0
M  END
$$$$
