@<TRIPOS>MOLECULE
DMS_1_A_403
 10 9 0 0 0
SMALL
NO_CHARGES

@<TRIPOS>ATOM
      1 S           2.3740  -18.9800    8.0080 S.o    403  DMS403      0.0000
      2 O           3.7210  -18.5310    8.5430 O.2    403  DMS403      0.0000
      3 C1          1.1410  -18.0580    8.9060 C.3    403  DMS403      0.0000
      4 C2          2.0620  -20.5700    8.7560 C.3    403  DMS403      0.0000
      5 H           0.1308  -18.4495    8.6673 H      403  DMS403      0.0000
      6 H           1.1921  -16.9912    8.6063 H      403  DMS403      0.0000
      7 H           1.3201  -18.1355    9.9978 H      403  DMS403      0.0000
      8 H           1.0279  -20.8980    8.5243 H      403  DMS403      0.0000
      9 H           2.1948  -20.5121    9.8556 H      403  DMS403      0.0000
     10 H           2.7746  -21.3137    8.3444 H      403  DMS403      0.0000
@<TRIPOS>BOND
     1     1     2    2
     2     1     3    1
     3     1     4    1
     4     3     5    1
     5     3     6    1
     6     3     7    1
     7     4     8    1
     8     4     9    1
     9     4    10    1

