@<TRIPOS>MOLECULE
DMS_2_A_407
 10 9 0 0 0
SMALL
NO_CHARGES

@<TRIPOS>ATOM
      1 S         -20.2160  -16.5440   -4.9660 S.o    407  DMS407      0.0000
      2 O         -20.4690  -15.8580   -3.6590 O.2    407  DMS407      0.0000
      3 C1        -21.3340  -15.8670   -6.2190 C.3    407  DMS407      0.0000
      4 C2        -20.8290  -18.2520   -4.8980 C.3    407  DMS407      0.0000
      5 H         -21.1967  -16.4140   -7.1741 H      407  DMS407      0.0000
      6 H         -21.1003  -14.7942   -6.3763 H      407  DMS407      0.0000
      7 H         -22.3854  -15.9676   -5.8800 H      407  DMS407      0.0000
      8 H         -20.7029  -18.7315   -5.8902 H      407  DMS407      0.0000
      9 H         -21.9017  -18.2559   -4.6154 H      407  DMS407      0.0000
     10 H         -20.2479  -18.8185   -4.1419 H      407  DMS407      0.0000
@<TRIPOS>BOND
     1     1     2    2
     2     1     3    1
     3     1     4    1
     4     3     5    1
     5     3     6    1
     6     3     7    1
     7     4     8    1
     8     4     9    1
     9     4    10    1

