@<TRIPOS>MOLECULE
DMS_1_A_406
 10 9 0 0 0
SMALL
NO_CHARGES

@<TRIPOS>ATOM
      1 S           6.2290    0.4080   18.1460 S.o    406  DMS406      0.0000
      2 O           7.5160    0.8210   17.5090 O.2    406  DMS406      0.0000
      3 C1          5.1730    1.8670   18.3580 C.3    406  DMS406      0.0000
      4 C2          6.5300   -0.0240   19.8820 C.3    406  DMS406      0.0000
      5 H           4.2454    1.5790   18.8936 H      406  DMS406      0.0000
      6 H           4.9076    2.2741   17.3610 H      406  DMS406      0.0000
      7 H           5.7136    2.6418   18.9393 H      406  DMS406      0.0000
      8 H           5.5667   -0.2626   20.3773 H      406  DMS406      0.0000
      9 H           7.0161    0.8264   20.4027 H      406  DMS406      0.0000
     10 H           7.1941   -0.9112   19.9280 H      406  DMS406      0.0000
@<TRIPOS>BOND
     1     1     2    2
     2     1     3    1
     3     1     4    1
     4     3     5    1
     5     3     6    1
     6     3     7    1
     7     4     8    1
     8     4     9    1
     9     4    10    1

