DMS_2_A_404
  -ISIS-            3D

 10  9  0  0  0  0  0  0  0  0  1 V2000
   -7.3770  -28.3330  -21.1940 S   0  0  0  0  0
   -8.1200  -27.4420  -22.1290 O   0  0  0  0  0
   -6.1760  -29.3180  -22.1350 C   0  0  0  0  0
   -6.2520  -27.3440  -20.1690 C   0  0  0  0  0
   -5.5763  -29.9372  -21.4370 H   0  0  0  0  0
   -5.5047  -28.6457  -22.7077 H   0  0  0  0  0
   -6.7190  -29.9819  -22.8384 H   0  0  0  0  0
   -5.6518  -28.0162  -19.5224 H   0  0  0  0  0
   -6.8464  -26.6582  -19.5313 H   0  0  0  0  0
   -5.5764  -26.7499  -20.8179 H   0  0  0  0  0
  1  2  2  0  0  0
  1  3  1  0  0  0
  1  4  1  0  0  0
  3  5  1  0  0  0
  3  6  1  0  0  0
  3  7  1  0  0  0
  4  8  1  0  0  0
  4  9  1  0  0  0
  4 10  1  0  0  0
M  END
$$$$
