@<TRIPOS>MOLECULE
05R_1_A_201
 17 17 0 0 0
SMALL
NO_CHARGES

@<TRIPOS>ATOM
      1 CBE       -43.6800  -31.8130    2.3200 C.2    201  05R201      0.0000
      2 OBF       -44.2660  -32.8960    2.1960 O.co2  201  05R201     -0.5000
      3 CBG       -43.2010  -31.1910    0.9810 C.3    201  05R201      0.0000
      4 CBH       -43.7830  -29.8730    0.6970 C.ar   201  05R201      0.0000
      5 CBI       -43.0300  -28.6790    0.8460 C.ar   201  05R201      0.0000
      6 CBJ       -43.7110  -27.5220    0.5700 C.ar   201  05R201      0.0000
      7 CBK       -44.9670  -27.4730    0.3260 C.ar   201  05R201      0.0000
      8 CLL       -45.7130  -25.9480    0.0410 Cl     201  05R201      0.0000
      9 CBM       -45.6920  -28.5640    0.2370 C.ar   201  05R201      0.0000
     10 CLN       -47.3100  -28.5390   -0.1450 Cl     201  05R201      0.0000
     11 CBO       -45.1230  -29.7590    0.4560 C.ar   201  05R201      0.0000
     12 OXT       -43.3640  -31.2330    3.3800 O.co2  201  05R201     -0.5000
     13 H         -43.4366  -31.8782    0.1360 H      201  05R201      0.0000
     14 H         -42.0896  -31.1188    1.0016 H      201  05R201      0.0000
     15 H         -41.9646  -28.6807    1.1274 H      201  05R201      0.0000
     16 H         -43.1293  -26.5832    0.5998 H      201  05R201      0.0000
     17 H         -45.7396  -30.6745    0.4170 H      201  05R201      0.0000
@<TRIPOS>BOND
     1     1     2   ar
     2     1     3    1
     3     1    12   ar
     4     3     4    1
     5     3    13    1
     6     3    14    1
     7     4     5   ar
     8     4    11   ar
     9     5     6   ar
    10     5    15    1
    11     6     7   ar
    12     6    16    1
    13     7     8    1
    14     7     9   ar
    15     9    10    1
    16     9    11   ar
    17    11    17    1

