DMS_1_A_202
  -ISIS-            3D

 10  9  0  0  0  0  0  0  0  0  1 V2000
  -44.4290  -35.4690   -2.0510 S   0  0  0  0  0
  -44.4380  -33.9810   -2.2580 O   0  0  0  0  0
  -43.6590  -36.1260   -3.5020 C   0  0  0  0  0
  -46.1080  -35.9760   -2.5030 C   0  0  0  0  0
  -43.7812  -37.2281   -3.5286 H   0  0  0  0  0
  -42.5756  -35.8893   -3.4798 H   0  0  0  0  0
  -44.1042  -35.6827   -4.4163 H   0  0  0  0  0
  -46.1626  -37.0824   -2.5608 H   0  0  0  0  0
  -46.3952  -35.5370   -3.4805 H   0  0  0  0  0
  -46.8153  -35.6220   -1.7252 H   0  0  0  0  0
  1  2  2  0  0  0
  1  3  1  0  0  0
  1  4  1  0  0  0
  3  5  1  0  0  0
  3  6  1  0  0  0
  3  7  1  0  0  0
  4  8  1  0  0  0
  4  9  1  0  0  0
  4 10  1  0  0  0
M  END
$$$$
