@<TRIPOS>MOLECULE
DMS_2_A_401
 10 9 0 0 0
SMALL
NO_CHARGES

@<TRIPOS>ATOM
      1 S          -6.8430  -27.9910  -21.6460 S.o    401  DMS401      0.0000
      2 O          -7.6040  -27.0260  -22.4790 O.2    401  DMS401      0.0000
      3 C1         -5.5690  -28.6450  -22.6920 C.3    401  DMS401      0.0000
      4 C2         -5.8220  -27.0260  -20.5830 C.3    401  DMS401      0.0000
      5 H          -4.8741  -29.2691  -22.0938 H      401  DMS401      0.0000
      6 H          -5.0034  -27.8214  -23.1742 H      401  DMS401      0.0000
      7 H          -6.0288  -29.2764  -23.4796 H      401  DMS401      0.0000
      8 H          -5.1216  -27.6858  -20.0313 H      401  DMS401      0.0000
      9 H          -6.4579  -26.4888  -19.8499 H      401  DMS401      0.0000
     10 H          -5.2433  -26.2833  -21.1697 H      401  DMS401      0.0000
@<TRIPOS>BOND
     1     1     2    2
     2     1     3    1
     3     1     4    1
     4     3     5    1
     5     3     6    1
     6     3     7    1
     7     4     8    1
     8     4     9    1
     9     4    10    1

