DMS_1_A_401
  -ISIS-            3D

 10  9  0  0  0  0  0  0  0  0  1 V2000
    6.8430  -27.9910   21.6460 S   0  0  0  0  0
    7.6040  -27.0260   22.4790 O   0  0  0  0  0
    5.5690  -28.6450   22.6920 C   0  0  0  0  0
    5.8220  -27.0260   20.5830 C   0  0  0  0  0
    4.8741  -29.2691   22.0938 H   0  0  0  0  0
    5.0034  -27.8214   23.1742 H   0  0  0  0  0
    6.0288  -29.2764   23.4796 H   0  0  0  0  0
    5.1216  -27.6858   20.0313 H   0  0  0  0  0
    6.4579  -26.4888   19.8499 H   0  0  0  0  0
    5.2433  -26.2833   21.1697 H   0  0  0  0  0
  1  2  2  0  0  0
  1  3  1  0  0  0
  1  4  1  0  0  0
  3  5  1  0  0  0
  3  6  1  0  0  0
  3  7  1  0  0  0
  4  8  1  0  0  0
  4  9  1  0  0  0
  4 10  1  0  0  0
M  END
$$$$
