@<TRIPOS>MOLECULE
DMS_1_A_403
 10 9 0 0 0
SMALL
NO_CHARGES

@<TRIPOS>ATOM
      1 S           2.4670  -18.8090    8.1490 S.o    403  DMS403      0.0000
      2 O           3.7620  -18.6930    8.9550 O.2    403  DMS403      0.0000
      3 C1          1.1840  -18.1420    9.1810 C.3    403  DMS403      0.0000
      4 C2          1.9990  -20.5020    8.3630 C.3    403  DMS403      0.0000
      5 H           0.1902  -18.3671    8.7426 H      403  DMS403      0.0000
      6 H           1.3036  -17.0410    9.2445 H      403  DMS403      0.0000
      7 H           1.2438  -18.5684   10.2034 H      403  DMS403      0.0000
      8 H           0.9789  -20.6670    7.9599 H      403  DMS403      0.0000
      9 H           2.0222  -20.7827    9.4360 H      403  DMS403      0.0000
     10 H           2.7080  -21.1500    7.8080 H      403  DMS403      0.0000
@<TRIPOS>BOND
     1     1     2    2
     2     1     3    1
     3     1     4    1
     4     3     5    1
     5     3     6    1
     6     3     7    1
     7     4     8    1
     8     4     9    1
     9     4    10    1

