@<TRIPOS>MOLECULE
DMS_1_B_704
 10 9 0 0 0
SMALL
NO_CHARGES

@<TRIPOS>ATOM
      1 S          -7.1450    3.5170   11.8010 S.o    704  DMS704      0.0000
      2 O          -8.3160    3.2580   10.9490 O.2    704  DMS704      0.0000
      3 C1         -7.1420    5.1480   12.6080 C.3    704  DMS704      0.0000
      4 C2         -5.6120    3.6770   10.8180 C.3    704  DMS704      0.0000
      5 H          -6.2284    5.2548   13.2278 H      704  DMS704      0.0000
      6 H          -8.0369    5.2331   13.2581 H      704  DMS704      0.0000
      7 H          -7.1690    5.9472   11.8394 H      704  DMS704      0.0000
      8 H          -4.7532    3.8581   11.4960 H      704  DMS704      0.0000
      9 H          -5.7108    4.5204   10.1042 H      704  DMS704      0.0000
     10 H          -5.4417    2.7362   10.2552 H      704  DMS704      0.0000
@<TRIPOS>BOND
     1     1     2    2
     2     1     3    1
     3     1     4    1
     4     3     5    1
     5     3     6    1
     6     3     7    1
     7     4     8    1
     8     4     9    1
     9     4    10    1

