@<TRIPOS>MOLECULE
DMS_1_B_702
 10 9 0 0 0
SMALL
NO_CHARGES

@<TRIPOS>ATOM
      1 S          -0.8890   -2.1290   16.9760 S.o    702  DMS702      0.0000
      2 O          -0.7120   -3.5880   17.2460 O.2    702  DMS702      0.0000
      3 C1         -2.3550   -1.9210   15.9430 C.3    702  DMS702      0.0000
      4 C2          0.3910   -1.4700   15.8590 C.3    702  DMS702      0.0000
      5 H          -2.4916   -0.8468   15.7035 H      702  DMS702      0.0000
      6 H          -3.2459   -2.2875   16.4930 H      702  DMS702      0.0000
      7 H          -2.2398   -2.4994   15.0039 H      702  DMS702      0.0000
      8 H           0.1752   -0.4051   15.6352 H      702  DMS702      0.0000
      9 H           0.4038   -2.0551   14.9168 H      702  DMS702      0.0000
     10 H           1.3809   -1.5473   16.3540 H      702  DMS702      0.0000
@<TRIPOS>BOND
     1     1     2    2
     2     1     3    1
     3     1     4    1
     4     3     5    1
     5     3     6    1
     6     3     7    1
     7     4     8    1
     8     4     9    1
     9     4    10    1

