DMS_1_B_705
  -ISIS-            3D

 10  9  0  0  0  0  0  0  0  0  1 V2000
    6.9710   -8.5550    8.6640 S   0  0  0  0  0
    5.8650   -8.3100    7.6970 O   0  0  0  0  0
    7.1730   -7.1460    9.7230 C   0  0  0  0  0
    6.5460   -9.7950    9.9060 C   0  0  0  0  0
    7.9836   -7.3390   10.4551 H   0  0  0  0  0
    6.2275   -6.9378   10.2645 H   0  0  0  0  0
    7.4433   -6.2610    9.1114 H   0  0  0  0  0
    7.3834   -9.9060   10.6249 H   0  0  0  0  0
    6.3661  -10.7677    9.4042 H   0  0  0  0  0
    5.6278   -9.4879   10.4474 H   0  0  0  0  0
  1  2  2  0  0  0
  1  3  1  0  0  0
  1  4  1  0  0  0
  3  5  1  0  0  0
  3  6  1  0  0  0
  3  7  1  0  0  0
  4  8  1  0  0  0
  4  9  1  0  0  0
  4 10  1  0  0  0
M  END
$$$$
