DMS_1_A_407
  -ISIS-            3D

 10  9  0  0  0  0  0  0  0  0  1 V2000
    0.1600  -14.1280   19.2070 S   0  0  0  0  0
   -0.3910  -12.7780   19.5510 O   0  0  0  0  0
    0.4260  -14.3830   17.4310 C   0  0  0  0  0
    1.8320  -14.3430   19.8600 C   0  0  0  0  0
    0.8283  -15.4019   17.2584 H   0  0  0  0  0
    1.1427  -13.6280   17.0473 H   0  0  0  0  0
   -0.5414  -14.2762   16.8990 H   0  0  0  0  0
    2.2044  -15.3552   19.6020 H   0  0  0  0  0
    1.8102  -14.2321   20.9635 H   0  0  0  0  0
    2.5059  -13.5758   19.4263 H   0  0  0  0  0
  1  2  2  0  0  0
  1  3  1  0  0  0
  1  4  1  0  0  0
  3  5  1  0  0  0
  3  6  1  0  0  0
  3  7  1  0  0  0
  4  8  1  0  0  0
  4  9  1  0  0  0
  4 10  1  0  0  0
M  END
$$$$
