@<TRIPOS>MOLECULE
BZX_1_A_201
 16 17 0 0 0
SMALL
NO_CHARGES

@<TRIPOS>ATOM
      1 C1        -48.9220  -29.1120    3.4650 C.ar   201  BZX201      0.0000
      2 C2        -47.5530  -29.0510    3.7000 C.ar   201  BZX201      0.0000
      3 C3        -47.0960  -29.0300    5.0050 C.ar   201  BZX201      0.0000
      4 C4        -47.9730  -29.0700    6.0750 C.ar   201  BZX201      0.0000
      5 C5        -49.3670  -29.1240    5.8370 C.ar   201  BZX201      0.0000
      6 C6        -49.8300  -29.1510    4.5540 C.ar   201  BZX201      0.0000
      7 O7        -51.1270  -29.2100    4.6020 O.3    201  BZX201      0.0000
      8 C8        -51.5470  -29.5700    5.8930 C.3    201  BZX201      0.0000
      9 O9        -50.4740  -29.1810    6.7130 O.3    201  BZX201      0.0000
     10 O10       -46.6100  -29.0100    2.6450 O.3    201  BZX201      0.0000
     11 H         -49.3207  -29.1312    2.4373 H      201  BZX201      0.0000
     12 H         -46.0103  -28.9824    5.1948 H      201  BZX201      0.0000
     13 H         -47.5963  -29.0589    7.1110 H      201  BZX201      0.0000
     14 H         -51.7097  -30.6636    5.9590 H      201  BZX201      0.0000
     15 H         -52.4769  -29.0413    6.1734 H      201  BZX201      0.0000
     16 H         -47.0357  -29.0358    1.7997 H      201  BZX201      0.0000
@<TRIPOS>BOND
     1     1     2   ar
     2     1     6   ar
     3     1    11    1
     4     2     3   ar
     5     2    10    1
     6     3     4   ar
     7     3    12    1
     8     4     5   ar
     9     4    13    1
    10     5     6   ar
    11     5     9    1
    12     6     7    1
    13     7     8    1
    14     8     9    1
    15     8    14    1
    16     8    15    1
    17    10    16    1

