DMS_1_A_401
  -ISIS-            3D

 10  9  0  0  0  0  0  0  0  0  1 V2000
    6.9830  -28.4120   21.2130 S   0  0  0  0  0
    7.7510  -27.4210   22.0540 O   0  0  0  0  0
    5.6960  -29.0350   22.2680 C   0  0  0  0  0
    5.9560  -27.4670   20.1190 C   0  0  0  0  0
    5.0007  -29.6683   21.6799 H   0  0  0  0  0
    5.1334  -28.1973   22.7286 H   0  0  0  0  0
    6.1478  -29.6514   23.0719 H   0  0  0  0  0
    5.2585  -28.1410   19.5808 H   0  0  0  0  0
    6.5944  -26.9461   19.3763 H   0  0  0  0  0
    5.3758  -26.7121   20.6881 H   0  0  0  0  0
  1  2  2  0  0  0
  1  3  1  0  0  0
  1  4  1  0  0  0
  3  5  1  0  0  0
  3  6  1  0  0  0
  3  7  1  0  0  0
  4  8  1  0  0  0
  4  9  1  0  0  0
  4 10  1  0  0  0
M  END
$$$$
