@<TRIPOS>MOLECULE
DMS_2_A_402
 10 9 0 0 0
SMALL
NO_CHARGES

@<TRIPOS>ATOM
      1 S          -6.1450   -1.0420    6.1580 S.o    402  DMS402      0.0000
      2 O          -6.9430   -0.7240    7.3890 O.2    402  DMS402      0.0000
      3 C1         -7.2800   -0.9180    4.7990 C.3    402  DMS402      0.0000
      4 C2         -5.9170   -2.7990    6.1440 C.3    402  DMS402      0.0000
      5 H          -6.7923   -1.2732    3.8681 H      402  DMS402      0.0000
      6 H          -7.5775    0.1422    4.6651 H      402  DMS402      0.0000
      7 H          -8.1867   -1.5255    4.9960 H      402  DMS402      0.0000
      8 H          -5.4569   -3.1112    5.1840 H      402  DMS402      0.0000
      9 H          -6.8896   -3.3162    6.2729 H      402  DMS402      0.0000
     10 H          -5.2416   -3.0879    6.9752 H      402  DMS402      0.0000
@<TRIPOS>BOND
     1     1     2    2
     2     1     3    1
     3     1     4    1
     4     3     5    1
     5     3     6    1
     6     3     7    1
     7     4     8    1
     8     4     9    1
     9     4    10    1

