DMS_2_A_403
  -ISIS-            3D

 10  9  0  0  0  0  0  0  0  0  1 V2000
   -2.0960  -18.9530   -8.2560 S   0  0  0  0  0
   -3.2950  -18.6920   -9.1250 O   0  0  0  0  0
   -0.6880  -18.4100   -9.1880 C   0  0  0  0  0
   -1.7890  -20.6970   -8.3560 C   0  0  0  0  0
    0.2453  -18.7071   -8.6678 H   0  0  0  0  0
   -0.7115  -17.3041   -9.2764 H   0  0  0  0  0
   -0.7018  -18.8534  -10.2046 H   0  0  0  0  0
   -0.8296  -20.9398   -7.8556 H   0  0  0  0  0
   -1.7462  -21.0228   -9.4154 H   0  0  0  0  0
   -2.6077  -21.2431   -7.8434 H   0  0  0  0  0
  1  2  2  0  0  0
  1  3  1  0  0  0
  1  4  1  0  0  0
  3  5  1  0  0  0
  3  6  1  0  0  0
  3  7  1  0  0  0
  4  8  1  0  0  0
  4  9  1  0  0  0
  4 10  1  0  0  0
M  END
$$$$
