@<TRIPOS>MOLECULE
F3F_2_A_307
 33 35 0 0 0
SMALL
NO_CHARGES

@<TRIPOS>ATOM
      1 CAA        24.7560  -35.0310   -5.5060 C.ar   307  F3F307      0.0000
      2 CAB        25.2490  -34.4890   -6.7000 C.ar   307  F3F307      0.0000
      3 CAC        25.8940  -35.3120   -7.6310 C.ar   307  F3F307      0.0000
      4 CAD        26.0460  -36.6780   -7.3640 C.ar   307  F3F307      0.0000
      5 CAE        25.5570  -37.2210   -6.1650 C.ar   307  F3F307      0.0000
      6 CAF        24.9120  -36.4010   -5.2340 C.ar   307  F3F307      0.0000
      7 CAG        24.3950  -36.9560   -4.0080 C.1    307  F3F307      0.0000
      8 CAH        23.9760  -37.5160   -2.9550 C.1    307  F3F307      0.0000
      9 CAI        23.3130  -37.9580   -1.7540 C.ar   307  F3F307      0.0000
     10 OAM        22.2450  -38.8630   -1.8760 O.3    307  F3F307      0.0000
     11 CAJ        23.4840  -37.6320   -0.4720 C.ar   307  F3F307      0.0000
     12 CAK        22.6020  -38.3260    0.2710 C.ar   307  F3F307      0.0000
     13 CAL        21.8780  -39.0890   -0.5440 C.ar   307  F3F307      0.0000
     14 CAN        20.7490  -40.0400   -0.1400 C.2    307  F3F307      0.0000
     15 OAY        20.3180  -40.0490    1.0160 O.2    307  F3F307      0.0000
     16 SAO        20.0150  -41.1560   -1.3150 S.3    307  F3F307      0.0000
     17 CAP        20.9140  -42.5960   -0.8640 C.ar   307  F3F307      0.0000
     18 NAT        20.5730  -43.8360   -1.1650 N.ar   307  F3F307      0.0000
     19 CAS        21.5560  -44.5860   -0.6630 C.ar   307  F3F307      0.0000
     20 CAU        21.6240  -46.1000   -0.8380 C.3    307  F3F307      0.0000
     21 FAW        22.3500  -46.7400    0.0980 F      307  F3F307      0.0000
     22 FAX        20.3730  -46.5440   -0.7750 F      307  F3F307      0.0000
     23 FAV        22.1450  -46.3600   -2.0590 F      307  F3F307      0.0000
     24 NAR        22.4380  -43.7950   -0.0590 N.ar   307  F3F307      0.0000
     25 NAQ        22.0550  -42.6210   -0.1760 N.ar   307  F3F307      0.0000
     26 H          24.2439  -34.3795   -4.7779 H      307  F3F307      0.0000
     27 H          25.1271  -33.4124   -6.9079 H      307  F3F307      0.0000
     28 H          26.2806  -34.8858   -8.5722 H      307  F3F307      0.0000
     29 H          26.5521  -37.3293   -8.0967 H      307  F3F307      0.0000
     30 H          25.6801  -38.2979   -5.9602 H      307  F3F307      0.0000
     31 H          24.2245  -36.9198   -0.0877 H      307  F3F307      0.0000
     32 H          22.5034  -38.2738    1.3622 H      307  F3F307      0.0000
     33 H          23.3035  -44.0785    0.4146 H      307  F3F307      0.0000
@<TRIPOS>BOND
     1     1     2   ar
     2     1     6   ar
     3     1    26    1
     4     2     3   ar
     5     2    27    1
     6     3     4   ar
     7     3    28    1
     8     4     5   ar
     9     4    29    1
    10     5     6   ar
    11     5    30    1
    12     6     7    1
    13     7     8    1
    14     8     9    1
    15     9    10   ar
    16     9    11   ar
    17    10    13   ar
    18    11    12   ar
    19    11    31    1
    20    12    13   ar
    21    12    32    1
    22    13    14    1
    23    14    15    2
    24    14    16    1
    25    16    17    1
    26    17    18   ar
    27    17    25   ar
    28    18    19   ar
    29    19    20    1
    30    19    24   ar
    31    20    21    1
    32    20    22    1
    33    20    23    1
    34    24    25   ar
    35    24    33    1

