@<TRIPOS>MOLECULE
DMS_2_A_401
 10 9 0 0 0
SMALL
NO_CHARGES

@<TRIPOS>ATOM
      1 S          -7.6970  -28.5560  -21.0560 S.o    401  DMS401      0.0000
      2 O          -8.4800  -27.6640  -21.9530 O.2    401  DMS401      0.0000
      3 C1         -6.4880  -29.5260  -21.9890 C.3    401  DMS401      0.0000
      4 C2         -6.5000  -27.5190  -20.1750 C.3    401  DMS401      0.0000
      5 H          -5.8454  -30.0972  -21.2883 H      401  DMS401      0.0000
      6 H          -5.8600  -28.8554  -22.6107 H      401  DMS401      0.0000
      7 H          -7.0251  -30.2371  -22.6494 H      401  DMS401      0.0000
      8 H          -5.8444  -28.1560  -19.5468 H      401  DMS401      0.0000
      9 H          -7.0461  -26.8076  -19.5221 H      401  DMS401      0.0000
     10 H          -5.8835  -26.9488  -20.8999 H      401  DMS401      0.0000
@<TRIPOS>BOND
     1     1     2    2
     2     1     3    1
     3     1     4    1
     4     3     5    1
     5     3     6    1
     6     3     7    1
     7     4     8    1
     8     4     9    1
     9     4    10    1

