@<TRIPOS>MOLECULE
DMS_1_A_402
 10 9 0 0 0
SMALL
NO_CHARGES

@<TRIPOS>ATOM
      1 S          20.1360  -16.6270    4.4700 S.o    402  DMS402      0.0000
      2 O          20.4240  -16.6200    3.0010 O.2    402  DMS402      0.0000
      3 C1         21.2850  -15.5240    5.3270 C.3    402  DMS402      0.0000
      4 C2         20.6060  -18.2250    5.1890 C.3    402  DMS402      0.0000
      5 H          21.1011  -15.5725    6.4197 H      402  DMS402      0.0000
      6 H          21.1251  -14.4842    4.9756 H      402  DMS402      0.0000
      7 H          22.3298  -15.8281    5.1115 H      402  DMS402      0.0000
      8 H          20.4392  -18.2019    6.2853 H      402  DMS402      0.0000
      9 H          21.6755  -18.4314    4.9789 H      402  DMS402      0.0000
     10 H          19.9820  -19.0251    4.7409 H      402  DMS402      0.0000
@<TRIPOS>BOND
     1     1     2    2
     2     1     3    1
     3     1     4    1
     4     3     5    1
     5     3     6    1
     6     3     7    1
     7     4     8    1
     8     4     9    1
     9     4    10    1

