@<TRIPOS>MOLECULE
DMS_1_A_403
 10 9 0 0 0
SMALL
NO_CHARGES

@<TRIPOS>ATOM
      1 S           7.8590  -22.2690   28.1090 S.o    403  DMS403      0.0000
      2 O           7.7400  -23.7550   27.9770 O.2    403  DMS403      0.0000
      3 C1          6.3510  -21.6330   28.8930 C.3    403  DMS403      0.0000
      4 C2          9.0840  -21.8400   29.3700 C.3    403  DMS403      0.0000
      5 H           6.4464  -20.5388   29.0476 H      403  DMS403      0.0000
      6 H           6.1943  -22.1350   29.8697 H      403  DMS403      0.0000
      7 H           5.4828  -21.8343   28.2327 H      403  DMS403      0.0000
      8 H           9.1076  -20.7394   29.5057 H      403  DMS403      0.0000
      9 H          10.0843  -22.1890   29.0416 H      403  DMS403      0.0000
     10 H           8.8219  -22.3283   30.3309 H      403  DMS403      0.0000
@<TRIPOS>BOND
     1     1     2    2
     2     1     3    1
     3     1     4    1
     4     3     5    1
     5     3     6    1
     6     3     7    1
     7     4     8    1
     8     4     9    1
     9     4    10    1

