DMS_1_A_405
  -ISIS-            3D

 10  9  0  0  0  0  0  0  0  0  1 V2000
    6.4830    0.2150   18.3170 S   0  0  0  0  0
    7.5090    0.6800   17.3380 O   0  0  0  0  0
    7.2860   -0.0840   19.9110 C   0  0  0  0  0
    5.4580    1.6240   18.8110 C   0  0  0  0  0
    6.5212   -0.3445   20.6707 H   0  0  0  0  0
    7.8390    0.8222   20.2334 H   0  0  0  0  0
    7.9975   -0.9287   19.8077 H   0  0  0  0  0
    4.7502    1.3099   19.6049 H   0  0  0  0  0
    4.8829    1.9817   17.9325 H   0  0  0  0  0
    6.1000    2.4469   19.1873 H   0  0  0  0  0
  1  2  2  0  0  0
  1  3  1  0  0  0
  1  4  1  0  0  0
  3  5  1  0  0  0
  3  6  1  0  0  0
  3  7  1  0  0  0
  4  8  1  0  0  0
  4  9  1  0  0  0
  4 10  1  0  0  0
M  END
$$$$
