DMS_2_A_404
  -ISIS-            3D

 10  9  0  0  0  0  0  0  0  0  1 V2000
   -6.2960   -1.4000    6.6850 S   0  0  0  0  0
   -5.6350   -0.1120    7.0250 O   0  0  0  0  0
   -6.6250   -1.4850    4.8860 C   0  0  0  0  0
   -5.0700   -2.7380    6.8240 C   0  0  0  0  0
   -7.0436   -2.4805    4.6331 H   0  0  0  0  0
   -5.6825   -1.3215    4.3243 H   0  0  0  0  0
   -7.3581   -0.6987    4.6128 H   0  0  0  0  0
   -5.5304   -3.6968    6.5095 H   0  0  0  0  0
   -4.7381   -2.8208    7.8792 H   0  0  0  0  0
   -4.1950   -2.5151    6.1796 H   0  0  0  0  0
  1  2  2  0  0  0
  1  3  1  0  0  0
  1  4  1  0  0  0
  3  5  1  0  0  0
  3  6  1  0  0  0
  3  7  1  0  0  0
  4  8  1  0  0  0
  4  9  1  0  0  0
  4 10  1  0  0  0
M  END
$$$$
