@<TRIPOS>MOLECULE
DMS_1_A_401
 10 9 0 0 0
SMALL
NO_CHARGES

@<TRIPOS>ATOM
      1 S           6.9830  -28.4120   21.2130 S.o    401  DMS401      0.0000
      2 O           7.7510  -27.4210   22.0540 O.2    401  DMS401      0.0000
      3 C1          5.6960  -29.0350   22.2680 C.3    401  DMS401      0.0000
      4 C2          5.9560  -27.4670   20.1190 C.3    401  DMS401      0.0000
      5 H           5.0007  -29.6683   21.6799 H      401  DMS401      0.0000
      6 H           5.1334  -28.1973   22.7286 H      401  DMS401      0.0000
      7 H           6.1478  -29.6514   23.0719 H      401  DMS401      0.0000
      8 H           5.2585  -28.1410   19.5808 H      401  DMS401      0.0000
      9 H           6.5944  -26.9461   19.3763 H      401  DMS401      0.0000
     10 H           5.3758  -26.7121   20.6881 H      401  DMS401      0.0000
@<TRIPOS>BOND
     1     1     2    2
     2     1     3    1
     3     1     4    1
     4     3     5    1
     5     3     6    1
     6     3     7    1
     7     4     8    1
     8     4     9    1
     9     4    10    1

