@<TRIPOS>MOLECULE
DMS_1_A_403
 10 9 0 0 0
SMALL
NO_CHARGES

@<TRIPOS>ATOM
      1 S           2.0960  -18.9530    8.2560 S.o    403  DMS403      0.0000
      2 O           3.2950  -18.6920    9.1250 O.2    403  DMS403      0.0000
      3 C1          0.6880  -18.4100    9.1880 C.3    403  DMS403      0.0000
      4 C2          1.7890  -20.6970    8.3560 C.3    403  DMS403      0.0000
      5 H          -0.2453  -18.7071    8.6678 H      403  DMS403      0.0000
      6 H           0.7115  -17.3041    9.2764 H      403  DMS403      0.0000
      7 H           0.7018  -18.8534   10.2046 H      403  DMS403      0.0000
      8 H           0.8296  -20.9398    7.8556 H      403  DMS403      0.0000
      9 H           1.7462  -21.0228    9.4154 H      403  DMS403      0.0000
     10 H           2.6077  -21.2431    7.8434 H      403  DMS403      0.0000
@<TRIPOS>BOND
     1     1     2    2
     2     1     3    1
     3     1     4    1
     4     3     5    1
     5     3     6    1
     6     3     7    1
     7     4     8    1
     8     4     9    1
     9     4    10    1

