@<TRIPOS>MOLECULE
TYZ_1_A_201
 21 21 0 0 0
SMALL
NO_CHARGES

@<TRIPOS>ATOM
      1 O1        -45.2720  -29.0170    1.3590 O.co2  201  TYZ201     -0.5000
      2 O2        -43.9880  -28.9880    3.1180 O.co2  201  TYZ201     -0.5000
      3 C7        -45.1150  -28.9850    2.5950 C.2    201  TYZ201      0.0000
      4 C3        -46.3170  -29.0190    3.5080 C.ar   201  TYZ201      0.0000
      5 C4        -46.1500  -29.0510    4.8700 C.ar   201  TYZ201      0.0000
      6 C5        -47.2440  -29.1220    5.7160 C.ar   201  TYZ201      0.0000
      7 C6        -48.5280  -29.1490    5.1990 C.ar   201  TYZ201      0.0000
      8 C1        -48.6740  -29.1150    3.8450 C.ar   201  TYZ201      0.0000
      9 C2        -47.6020  -29.0620    2.9830 C.ar   201  TYZ201      0.0000
     10 C8        -51.0350  -29.3560    5.6240 C.2    201  TYZ201      0.0000
     11 N         -49.6860  -29.2700    6.0990 N.am   201  TYZ201      0.0000
     12 O4        -51.2620  -29.2570    4.5200 O.2    201  TYZ201      0.0000
     13 C9        -52.1930  -29.5110    6.5520 C.3    201  TYZ201      0.0000
     14 H         -45.1397  -29.0278    5.3120 H      201  TYZ201      0.0000
     15 H         -47.0814  -29.1597    6.8062 H      201  TYZ201      0.0000
     16 H         -49.6551  -29.1397    3.3592 H      201  TYZ201      0.0000
     17 H         -47.7725  -29.0519    1.8935 H      201  TYZ201      0.0000
     18 H         -49.4523  -29.3017    7.0996 H      201  TYZ201      0.0000
     19 H         -53.1628  -29.5603    6.0085 H      201  TYZ201      0.0000
     20 H         -52.2462  -28.6548    7.2604 H      201  TYZ201      0.0000
     21 H         -52.0941  -30.4439    7.1499 H      201  TYZ201      0.0000
@<TRIPOS>BOND
     1     1     3   ar
     2     2     3   ar
     3     3     4    1
     4     4     5   ar
     5     4     9   ar
     6     5     6   ar
     7     5    14    1
     8     6     7   ar
     9     6    15    1
    10     7     8   ar
    11     7    11    1
    12     8     9   ar
    13     8    16    1
    14     9    17    1
    15    10    11    1
    16    10    12    2
    17    10    13    1
    18    11    18    1
    19    13    19    1
    20    13    20    1
    21    13    21    1

