@<TRIPOS>MOLECULE
EDO_1_A_203
 10 9 0 0 0
SMALL
NO_CHARGES

@<TRIPOS>ATOM
      1 C1        -25.2630   14.8190    0.6510 C.3    203  EDO203      0.0000
      2 O1        -26.1340   15.6640    1.3630 O.3    203  EDO203      0.0000
      3 C2        -25.9860   13.9010   -0.2560 C.3    203  EDO203      0.0000
      4 O2        -26.4640   12.7620    0.4160 O.3    203  EDO203      0.0000
      5 H         -24.6436   14.2476    1.3730 H      203  EDO203      0.0000
      6 H         -24.5546   15.4492    0.0706 H      203  EDO203      0.0000
      7 H         -26.4882   16.3155    0.7716 H      203  EDO203      0.0000
      8 H         -25.2982   13.5637   -1.0617 H      203  EDO203      0.0000
      9 H         -26.8264   14.4230   -0.7609 H      203  EDO203      0.0000
     10 H         -26.9615   12.2325   -0.1934 H      203  EDO203      0.0000
@<TRIPOS>BOND
     1     1     2    1
     2     1     3    1
     3     1     5    1
     4     1     6    1
     5     2     7    1
     6     3     4    1
     7     3     8    1
     8     3     9    1
     9     4    10    1

