@<TRIPOS>MOLECULE
EDO_1_A_204
 10 9 0 0 0
SMALL
NO_CHARGES

@<TRIPOS>ATOM
      1 C1        -13.4750   10.4560    2.8510 C.3    204  EDO204      0.0000
      2 O1        -12.2120   10.1490    2.3040 O.3    204  EDO204      0.0000
      3 C2        -13.3970   10.9330    4.2410 C.3    204  EDO204      0.0000
      4 O2        -12.4070   11.9220    4.4140 O.3    204  EDO204      0.0000
      5 H         -14.1231    9.5576    2.7814 H      204  EDO204      0.0000
      6 H         -13.9510   11.2315    2.2131 H      204  EDO204      0.0000
      7 H         -11.6240   10.8424    2.5821 H      204  EDO204      0.0000
      8 H         -13.1656   10.0788    4.9137 H      204  EDO204      0.0000
      9 H         -14.3815   11.3335    4.5648 H      204  EDO204      0.0000
     10 H         -12.3999   12.1861    5.3244 H      204  EDO204      0.0000
@<TRIPOS>BOND
     1     1     2    1
     2     1     3    1
     3     1     5    1
     4     1     6    1
     5     2     7    1
     6     3     4    1
     7     3     8    1
     8     3     9    1
     9     4    10    1

