@<TRIPOS>MOLECULE
EDO_1_A_205
 10 9 0 0 0
SMALL
NO_CHARGES

@<TRIPOS>ATOM
      1 C1        -11.0760   -5.6820  -13.3930 C.3    205  EDO205      0.0000
      2 O1        -11.5440   -5.8700  -14.7210 O.3    205  EDO205      0.0000
      3 C2        -10.5340   -4.3240  -13.1700 C.3    205  EDO205      0.0000
      4 O2         -9.9800   -3.7480  -14.3400 O.3    205  EDO205      0.0000
      5 H         -10.2818   -6.4358  -13.2042 H      205  EDO205      0.0000
      6 H         -11.8955   -5.9090  -12.6803 H      205  EDO205      0.0000
      7 H         -10.9880   -5.3439  -15.2849 H      205  EDO205      0.0000
      8 H          -9.7712   -4.3390  -12.3626 H      205  EDO205      0.0000
      9 H         -11.3526   -3.6608  -12.8147 H      205  EDO205      0.0000
     10 H          -9.6731   -2.8761  -14.1302 H      205  EDO205      0.0000
@<TRIPOS>BOND
     1     1     2    1
     2     1     3    1
     3     1     5    1
     4     1     6    1
     5     2     7    1
     6     3     4    1
     7     3     8    1
     8     3     9    1
     9     4    10    1

