@<TRIPOS>MOLECULE
EDO_1_A_206
 10 9 0 0 0
SMALL
NO_CHARGES

@<TRIPOS>ATOM
      1 C1        -20.6740   -4.3910  -16.2580 C.3    206  EDO206      0.0000
      2 O1        -19.3820   -4.8660  -15.7440 O.3    206  EDO206      0.0000
      3 C2        -20.6780   -3.9900  -17.6970 C.3    206  EDO206      0.0000
      4 O2        -21.9850   -3.9600  -18.2800 O.3    206  EDO206      0.0000
      5 H         -21.0027   -3.5359  -15.6307 H      206  EDO206      0.0000
      6 H         -21.4247   -5.1941  -16.0936 H      206  EDO206      0.0000
      7 H         -19.2492   -5.7501  -16.0596 H      206  EDO206      0.0000
      8 H         -20.0747   -4.7180  -18.2793 H      206  EDO206      0.0000
      9 H         -20.1826   -3.0049  -17.8305 H      206  EDO206      0.0000
     10 H         -22.4272   -3.1765  -17.9807 H      206  EDO206      0.0000
@<TRIPOS>BOND
     1     1     2    1
     2     1     3    1
     3     1     5    1
     4     1     6    1
     5     2     7    1
     6     3     4    1
     7     3     8    1
     8     3     9    1
     9     4    10    1

