EDO_1_B_503
  -ISIS-            3D

 10  9  0  0  0  0  0  0  0  0  1 V2000
  -47.5090   43.0660   25.2070 C   0  0  0  0  0
  -47.7410   43.4760   26.5590 O   0  0  0  0  0
  -48.4570   43.8120   24.2780 C   0  0  0  0  0
  -49.8090   43.5070   24.6400 O   0  0  0  0  0
  -47.6535   41.9686   25.1212 H   0  0  0  0  0
  -46.4535   43.2809   24.9414 H   0  0  0  0  0
  -48.6794   43.4145   26.6967 H   0  0  0  0  0
  -48.2768   43.5112   23.2243 H   0  0  0  0  0
  -48.2880   44.9074   24.3477 H   0  0  0  0  0
  -50.3855   43.9735   24.0497 H   0  0  0  0  0
  1  2  1  0  0  0
  1  3  1  0  0  0
  1  5  1  0  0  0
  1  6  1  0  0  0
  2  7  1  0  0  0
  3  4  1  0  0  0
  3  8  1  0  0  0
  3  9  1  0  0  0
  4 10  1  0  0  0
M  END
$$$$
