EDO_1_B_502
  -ISIS-            3D

 10  9  0  0  0  0  0  0  0  0  1 V2000
  -77.4310    2.9130    0.1090 C   0  0  0  0  0
  -77.8540    3.0280    1.4720 O   0  0  0  0  0
  -76.1550    2.0830    0.0400 C   0  0  0  0  0
  -75.6540    2.0910   -1.3020 O   0  0  0  0  0
  -77.2511    3.9277   -0.3056 H   0  0  0  0  0
  -78.2342    2.4396   -0.4943 H   0  0  0  0  0
  -78.6406    3.5567    1.4930 H   0  0  0  0  0
  -76.3538    1.0385    0.3602 H   0  0  0  0  0
  -75.3856    2.5047    0.7211 H   0  0  0  0  0
  -74.8552    1.5807   -1.3214 H   0  0  0  0  0
  1  2  1  0  0  0
  1  3  1  0  0  0
  1  5  1  0  0  0
  1  6  1  0  0  0
  2  7  1  0  0  0
  3  4  1  0  0  0
  3  8  1  0  0  0
  3  9  1  0  0  0
  4 10  1  0  0  0
M  END
$$$$
