EDO_3_B_501
  -ISIS-            3D

 10  9  0  0  0  0  0  0  0  0  1 V2000
 -118.8760   63.3110   26.7700 C   0  0  0  0  0
 -119.2420   64.6900   26.6660 O   0  0  0  0  0
 -119.0600   62.8550   28.2100 C   0  0  0  0  0
 -118.3180   63.7230   29.0730 O   0  0  0  0  0
 -117.8160   63.1982   26.4621 H   0  0  0  0  0
 -119.4858   62.6908   26.0786 H   0  0  0  0  0
 -120.0594   64.7518   26.1904 H   0  0  0  0  0
 -118.7006   61.8146   28.3426 H   0  0  0  0  0
 -120.1317   62.8760   28.4979 H   0  0  0  0  0
 -118.4621   64.6070   28.7535 H   0  0  0  0  0
  1  2  1  0  0  0
  1  3  1  0  0  0
  1  5  1  0  0  0
  1  6  1  0  0  0
  2  7  1  0  0  0
  3  4  1  0  0  0
  3  8  1  0  0  0
  3  9  1  0  0  0
  4 10  1  0  0  0
M  END
$$$$
