@<TRIPOS>MOLECULE
EDO_3_B_502
 10 9 0 0 0
SMALL
NO_CHARGES

@<TRIPOS>ATOM
      1 C1       -109.6370   65.6000    0.1090 C.3    502  EDO502      0.0000
      2 O1       -109.3250   65.9100    1.4720 O.3    502  EDO502      0.0000
      3 C2       -110.9930   64.9100    0.0400 C.3    502  EDO502      0.0000
      4 O2       -111.2380   64.4730   -1.3020 O.3    502  EDO502      0.0000
      5 H        -108.8484   64.9369   -0.3062 H      502  EDO502      0.0000
      6 H        -109.6439   66.5333   -0.4926 H      502  EDO502      0.0000
      7 H        -108.4513   66.2775    1.5009 H      502  EDO502      0.0000
      8 H        -111.8050   65.5875    0.3784 H      502  EDO502      0.0000
      9 H        -111.0053   64.0227    0.7064 H      502  EDO502      0.0000
     10 H        -111.6171   65.1938   -1.7874 H      502  EDO502      0.0000
@<TRIPOS>BOND
     1     1     2    1
     2     1     3    1
     3     1     5    1
     4     1     6    1
     5     2     7    1
     6     3     4    1
     7     3     8    1
     8     3     9    1
     9     4    10    1

