@<TRIPOS>MOLECULE
EDO_2_B_503
 10 9 0 0 0
SMALL
NO_CHARGES

@<TRIPOS>ATOM
      1 C1        -88.9790   67.9850   25.2070 C.3    503  EDO503      0.0000
      2 O1        -89.2180   67.5790   26.5590 O.3    503  EDO503      0.0000
      3 C2        -89.1510   66.7900   24.2780 C.3    503  EDO503      0.0000
      4 O2        -88.2110   65.7720   24.6400 O.3    503  EDO503      0.0000
      5 H         -87.9573   68.4109   25.1216 H      503  EDO503      0.0000
      6 H         -89.6948   68.7900   24.9414 H      503  EDO503      0.0000
      7 H         -88.7612   66.7538   26.6766 H      503  EDO503      0.0000
      8 H         -89.0055   67.0893   23.2184 H      503  EDO503      0.0000
      9 H         -90.1783   66.3785   24.3624 H      503  EDO503      0.0000
     10 H         -87.4460   65.8561   24.0864 H      503  EDO503      0.0000
@<TRIPOS>BOND
     1     1     2    1
     2     1     3    1
     3     1     5    1
     4     1     6    1
     5     2     7    1
     6     3     4    1
     7     3     8    1
     8     3     9    1
     9     4    10    1

