EDO_3_B_502
  -ISIS-            3D

 10  9  0  0  0  0  0  0  0  0  1 V2000
 -109.6370   65.6000    0.1090 C   0  0  0  0  0
 -109.3250   65.9100    1.4720 O   0  0  0  0  0
 -110.9930   64.9100    0.0400 C   0  0  0  0  0
 -111.2380   64.4730   -1.3020 O   0  0  0  0  0
 -108.8484   64.9369   -0.3062 H   0  0  0  0  0
 -109.6439   66.5333   -0.4926 H   0  0  0  0  0
 -108.4513   66.2775    1.5009 H   0  0  0  0  0
 -111.8050   65.5875    0.3784 H   0  0  0  0  0
 -111.0053   64.0227    0.7064 H   0  0  0  0  0
 -111.6171   65.1938   -1.7874 H   0  0  0  0  0
  1  2  1  0  0  0
  1  3  1  0  0  0
  1  5  1  0  0  0
  1  6  1  0  0  0
  2  7  1  0  0  0
  3  4  1  0  0  0
  3  8  1  0  0  0
  3  9  1  0  0  0
  4 10  1  0  0  0
M  END
$$$$
