@<TRIPOS>MOLECULE
DMS_2_A_402
 10 9 0 0 0
SMALL
NO_CHARGES

@<TRIPOS>ATOM
      1 S         106.4430  -27.8690  -22.1530 S.o    402  DMS402      0.0000
      2 O         105.6390  -26.9120  -22.9500 O.2    402  DMS402      0.0000
      3 C1        107.5070  -26.9230  -21.1280 C.3    402  DMS402      0.0000
      4 C2        107.6710  -28.5490  -23.2850 C.3    402  DMS402      0.0000
      5 H         108.2240  -27.5923  -20.6094 H      402  DMS402      0.0000
      6 H         106.9047  -26.3865  -20.3666 H      402  DMS402      0.0000
      7 H         108.0678  -26.1811  -21.7321 H      402  DMS402      0.0000
      8 H         108.3864  -29.1831  -22.7224 H      402  DMS402      0.0000
      9 H         108.2200  -27.7291  -23.7914 H      402  DMS402      0.0000
     10 H         107.1596  -29.1709  -24.0479 H      402  DMS402      0.0000
@<TRIPOS>BOND
     1     1     2    2
     2     1     3    1
     3     1     4    1
     4     3     5    1
     5     3     6    1
     6     3     7    1
     7     4     8    1
     8     4     9    1
     9     4    10    1

