@<TRIPOS>MOLECULE
DMS_1_A_402
 10 9 0 0 0
SMALL
NO_CHARGES

@<TRIPOS>ATOM
      1 S         119.9330  -27.8690   22.1530 S.o    402  DMS402      0.0000
      2 O         120.7370  -26.9120   22.9500 O.2    402  DMS402      0.0000
      3 C1        118.8690  -26.9230   21.1280 C.3    402  DMS402      0.0000
      4 C2        118.7050  -28.5490   23.2850 C.3    402  DMS402      0.0000
      5 H         118.1520  -27.5923   20.6094 H      402  DMS402      0.0000
      6 H         119.4713  -26.3865   20.3666 H      402  DMS402      0.0000
      7 H         118.3082  -26.1811   21.7321 H      402  DMS402      0.0000
      8 H         117.9896  -29.1831   22.7224 H      402  DMS402      0.0000
      9 H         118.1560  -27.7291   23.7914 H      402  DMS402      0.0000
     10 H         119.2164  -29.1709   24.0479 H      402  DMS402      0.0000
@<TRIPOS>BOND
     1     1     2    2
     2     1     3    1
     3     1     4    1
     4     3     5    1
     5     3     6    1
     6     3     7    1
     7     4     8    1
     8     4     9    1
     9     4    10    1

