DMS_2_A_405
  -ISIS-            3D

 10  9  0  0  0  0  0  0  0  0  1 V2000
  110.9780  -18.6930   -8.8330 S   0  0  0  0  0
  111.1840  -19.6760   -7.7090 O   0  0  0  0  0
  110.3880  -19.6690  -10.1800 C   0  0  0  0  0
  112.5890  -18.3590   -9.5180 C   0  0  0  0  0
  110.3497  -19.0557  -11.1035 H   0  0  0  0  0
  109.3642  -20.0293   -9.9506 H   0  0  0  0  0
  111.0478  -20.5452  -10.3461 H   0  0  0  0  0
  112.4868  -17.7733  -10.4545 H   0  0  0  0  0
  113.1251  -19.3068   -9.7297 H   0  0  0  0  0
  113.1793  -17.7668   -8.7891 H   0  0  0  0  0
  1  2  2  0  0  0
  1  3  1  0  0  0
  1  4  1  0  0  0
  3  5  1  0  0  0
  3  6  1  0  0  0
  3  7  1  0  0  0
  4  8  1  0  0  0
  4  9  1  0  0  0
  4 10  1  0  0  0
M  END
$$$$
