@<TRIPOS>MOLECULE
DMS_2_A_405
 10 9 0 0 0
SMALL
NO_CHARGES

@<TRIPOS>ATOM
      1 S         110.9780  -18.6930   -8.8330 S.o    405  DMS405      0.0000
      2 O         111.1840  -19.6760   -7.7090 O.2    405  DMS405      0.0000
      3 C1        110.3880  -19.6690  -10.1800 C.3    405  DMS405      0.0000
      4 C2        112.5890  -18.3590   -9.5180 C.3    405  DMS405      0.0000
      5 H         110.3497  -19.0557  -11.1035 H      405  DMS405      0.0000
      6 H         109.3642  -20.0293   -9.9506 H      405  DMS405      0.0000
      7 H         111.0478  -20.5452  -10.3461 H      405  DMS405      0.0000
      8 H         112.4868  -17.7733  -10.4545 H      405  DMS405      0.0000
      9 H         113.1251  -19.3068   -9.7297 H      405  DMS405      0.0000
     10 H         113.1793  -17.7668   -8.7891 H      405  DMS405      0.0000
@<TRIPOS>BOND
     1     1     2    2
     2     1     3    1
     3     1     4    1
     4     3     5    1
     5     3     6    1
     6     3     7    1
     7     4     8    1
     8     4     9    1
     9     4    10    1

