@<TRIPOS>MOLECULE
DMS_2_A_404
 10 9 0 0 0
SMALL
NO_CHARGES

@<TRIPOS>ATOM
      1 S         106.5200   -1.7750    6.5230 S.o    404  DMS404      0.0000
      2 O         107.2140   -0.7100    7.3050 O.2    404  DMS404      0.0000
      3 C1        107.8000   -2.7940    5.8020 C.3    404  DMS404      0.0000
      4 C2        105.9230   -1.0080    5.0390 C.3    404  DMS404      0.0000
      5 H         107.3467   -3.5257    5.1024 H      404  DMS404      0.0000
      6 H         108.3264   -3.3452    6.6079 H      404  DMS404      0.0000
      7 H         108.5314   -2.1633    5.2562 H      404  DMS404      0.0000
      8 H         105.5122   -1.7797    4.3564 H      404  DMS404      0.0000
      9 H         106.7440   -0.4631    4.5293 H      404  DMS404      0.0000
     10 H         105.1169   -0.2904    5.2953 H      404  DMS404      0.0000
@<TRIPOS>BOND
     1     1     2    2
     2     1     3    1
     3     1     4    1
     4     3     5    1
     5     3     6    1
     6     3     7    1
     7     4     8    1
     8     4     9    1
     9     4    10    1

