DMS_2_A_404
  -ISIS-            3D

 10  9  0  0  0  0  0  0  0  0  1 V2000
  106.5200   -1.7750    6.5230 S   0  0  0  0  0
  107.2140   -0.7100    7.3050 O   0  0  0  0  0
  107.8000   -2.7940    5.8020 C   0  0  0  0  0
  105.9230   -1.0080    5.0390 C   0  0  0  0  0
  107.3467   -3.5257    5.1024 H   0  0  0  0  0
  108.3264   -3.3452    6.6079 H   0  0  0  0  0
  108.5314   -2.1633    5.2562 H   0  0  0  0  0
  105.5122   -1.7797    4.3564 H   0  0  0  0  0
  106.7440   -0.4631    4.5293 H   0  0  0  0  0
  105.1169   -0.2904    5.2953 H   0  0  0  0  0
  1  2  2  0  0  0
  1  3  1  0  0  0
  1  4  1  0  0  0
  3  5  1  0  0  0
  3  6  1  0  0  0
  3  7  1  0  0  0
  4  8  1  0  0  0
  4  9  1  0  0  0
  4 10  1  0  0  0
M  END
$$$$
