DMS_2_A_402
  -ISIS-            3D

 10  9  0  0  0  0  0  0  0  0  1 V2000
  106.4430  -27.8690  -22.1530 S   0  0  0  0  0
  105.6390  -26.9120  -22.9500 O   0  0  0  0  0
  107.5070  -26.9230  -21.1280 C   0  0  0  0  0
  107.6710  -28.5490  -23.2850 C   0  0  0  0  0
  108.2240  -27.5923  -20.6094 H   0  0  0  0  0
  106.9047  -26.3865  -20.3666 H   0  0  0  0  0
  108.0678  -26.1811  -21.7321 H   0  0  0  0  0
  108.3864  -29.1831  -22.7224 H   0  0  0  0  0
  108.2200  -27.7291  -23.7914 H   0  0  0  0  0
  107.1596  -29.1709  -24.0479 H   0  0  0  0  0
  1  2  2  0  0  0
  1  3  1  0  0  0
  1  4  1  0  0  0
  3  5  1  0  0  0
  3  6  1  0  0  0
  3  7  1  0  0  0
  4  8  1  0  0  0
  4  9  1  0  0  0
  4 10  1  0  0  0
M  END
$$$$
