@<TRIPOS>MOLECULE
NNA_2_A_401
 112 115 0 0 0
SMALL
NO_CHARGES

@<TRIPOS>ATOM
      1 C1        101.1960    4.7440  -22.5650 C.2    401  NNA401      0.0000
      2 O2        100.7190    4.3570  -23.6560 O.2    401  NNA401      0.0000
      3 N3        100.5280    5.5240  -21.6970 N.am   401  NNA401      0.0000
      4 C4         99.2070    6.1250  -21.9390 C.3    401  NNA401      0.0000
      5 C5         98.8380    6.9790  -20.7210 C.3    401  NNA401      0.0000
      6 C6         98.1240    5.0580  -22.1350 C.3    401  NNA401      0.0000
      7 C7         98.5310    6.1420  -19.4870 C.3    401  NNA401      0.0000
      8 C8         97.8820    4.2250  -20.8860 C.3    401  NNA401      0.0000
      9 C9         97.4410    5.1330  -19.7630 C.3    401  NNA401      0.0000
     10 C10        99.2780    6.9890  -23.2420 C.3    401  NNA401      0.0000
     11 S11       100.3640    8.3980  -23.1750 S.o    401  NNA401      0.0000
     12 O12       101.5860    8.0420  -22.5080 O.2    401  NNA401      0.0000
     13 O13        99.6380    9.5100  -22.6420 O.2    401  NNA401      0.0000
     14 C14       100.8490    8.7910  -24.8710 C.3    401  NNA401      0.0000
     15 C15       101.6890    7.6530  -25.4400 C.3    401  NNA401      0.0000
     16 C16        99.5590    8.9610  -25.6720 C.3    401  NNA401      0.0000
     17 C17       101.6580   10.0830  -24.8700 C.3    401  NNA401      0.0000
     18 N18       102.4490    4.4340  -22.1860 N.am   401  NNA401      0.0000
     19 C19       103.2100    3.4080  -22.8760 C.3    401  NNA401      0.0000
     20 C20       104.6330    3.8860  -23.1750 C.3    401  NNA401      0.0000
     21 C21       105.3940    2.7690  -23.8710 C.3    401  NNA401      0.0000
     22 C22       104.5440    5.0900  -24.1100 C.3    401  NNA401      0.0000
     23 C23       105.4250    4.2950  -21.9330 C.3    401  NNA401      0.0000
     24 C24       103.0600    2.0870  -22.1070 C.2    401  NNA401      0.0000
     25 O25       103.4190    2.0020  -20.9460 O.2    401  NNA401      0.0000
     26 N26       102.5540    1.0350  -22.7730 N.am   401  NNA401      0.0000
     27 C27       102.1490    1.0460  -24.1980 C.3    401  NNA401      0.0000
     28 C28       102.3860   -0.2830  -22.1530 C.3    401  NNA401      0.0000
     29 C29       101.4570   -1.0220  -23.0740 C.3    401  NNA401      0.0000
     30 C30       101.2900   -0.1940  -24.3390 C.3    401  NNA401      0.0000
     31 C31       100.1020   -0.4670  -23.4320 C.3    401  NNA401      0.0000
     32 C32        99.0900   -1.4620  -23.9630 C.3    401  NNA401      0.0000
     33 C33        99.4450    0.6640  -22.6680 C.3    401  NNA401      0.0000
     34 C34       103.7160   -0.9980  -22.1240 C.2    401  NNA401      0.0000
     35 O35       104.3690   -1.0820  -23.1580 O.2    401  NNA401      0.0000
     36 N36       104.1590   -1.4410  -20.9440 N.am   401  NNA401      0.0000
     37 C37       105.5070   -2.0230  -20.8060 C.3    401  NNA401      0.0000
     38 C38       106.3980   -1.1000  -19.9560 C.3    401  NNA401      0.0000
     39 C39       106.7710    0.2180  -20.6290 C.3    401  NNA401      0.0000
     40 C40       107.8750    0.9780  -19.9360 C.3    401  NNA401      0.0000
     41 C41       107.7820    0.9260  -18.4470 C.3    401  NNA401      0.0000
     42 O42       104.5010   -4.2320  -20.9640 O.3    401  NNA401      0.0000
     43 C43       105.4520   -3.4780  -20.2560 C.3    401  NNA401      0.0000
     44 O44       107.5990   -4.2060  -19.5520 O.2    401  NNA401      0.0000
     45 N45       106.9580   -4.7280  -21.6690 N.am   401  NNA401      0.0000
     46 C46       108.1170   -5.5290  -21.9430 C.3    401  NNA401      0.0000
     47 C47       109.3210   -4.8570  -22.5100 C.3    401  NNA401      0.0000
     48 C48       108.5140   -5.7750  -23.3620 C.3    401  NNA401      0.0000
     49 C49       106.7640   -4.1670  -20.4510 C.2    401  NNA401      0.0000
     50 H         100.9962    5.7557  -20.8117 H      401  NNA401      0.0000
     51 H          97.9419    7.5969  -20.9636 H      401  NNA401      0.0000
     52 H          99.6522    7.6985  -20.4767 H      401  NNA401      0.0000
     53 H          98.3848    4.3829  -22.9803 H      401  NNA401      0.0000
     54 H          97.1672    5.5487  -22.4298 H      401  NNA401      0.0000
     55 H          98.2133    6.8137  -18.6554 H      401  NNA401      0.0000
     56 H          99.4497    5.6239  -19.1287 H      401  NNA401      0.0000
     57 H          98.8021    3.6636  -20.6042 H      401  NNA401      0.0000
     58 H          97.0941    3.4626  -21.0881 H      401  NNA401      0.0000
     59 H          96.4877    5.6476  -20.0239 H      401  NNA401      0.0000
     60 H          97.2390    4.5319  -18.8461 H      401  NNA401      0.0000
     61 H          98.2729    7.3867  -23.4950 H      401  NNA401      0.0000
     62 H          99.5837    6.3691  -24.1037 H      401  NNA401      0.0000
     63 H         102.0069    7.8717  -26.4827 H      401  NNA401      0.0000
     64 H         101.1499    6.6840  -25.4812 H      401  NNA401      0.0000
     65 H         102.6213    7.4843  -24.8602 H      401  NNA401      0.0000
     66 H          99.7781    9.2561  -26.7214 H      401  NNA401      0.0000
     67 H          98.8982    9.7534  -25.2576 H      401  NNA401      0.0000
     68 H          98.9577    8.0296  -25.7365 H      401  NNA401      0.0000
     69 H         101.9734   10.3670  -25.8976 H      401  NNA401      0.0000
     70 H         102.5867   10.0001  -24.2642 H      401  NNA401      0.0000
     71 H         101.0816   10.9443  -24.4675 H      401  NNA401      0.0000
     72 H         102.8532    4.8704  -21.3482 H      401  NNA401      0.0000
     73 H         102.7627    3.2646  -23.8809 H      401  NNA401      0.0000
     74 H         106.4287    3.0776  -24.1410 H      401  NNA401      0.0000
     75 H         104.9035    2.4529  -24.8179 H      401  NNA401      0.0000
     76 H         105.4907    1.8619  -23.2345 H      401  NNA401      0.0000
     77 H         105.5517    5.4514  -24.4146 H      401  NNA401      0.0000
     78 H         104.0296    5.9537  -23.6340 H      401  NNA401      0.0000
     79 H         103.9925    4.8582  -25.0486 H      401  NNA401      0.0000
     80 H         106.4653    4.5967  -22.1892 H      401  NNA401      0.0000
     81 H         105.5097    3.4671  -21.1961 H      401  NNA401      0.0000
     82 H         104.9736    5.1600  -21.4006 H      401  NNA401      0.0000
     83 H         103.0309    0.9652  -24.8725 H      401  NNA401      0.0000
     84 H         101.5373    1.9225  -24.5007 H      401  NNA401      0.0000
     85 H         101.9344   -0.2205  -21.1371 H      401  NNA401      0.0000
     86 H         101.5820   -2.0982  -23.1724 H      401  NNA401      0.0000
     87 H         101.2922   -0.7025  -25.3005 H      401  NNA401      0.0000
     88 H          98.3642   -0.9626  -24.6424 H      401  NNA401      0.0000
     89 H          98.5173   -1.9236  -23.1284 H      401  NNA401      0.0000
     90 H          99.5699   -2.2867  -24.5346 H      401  NNA401      0.0000
     91 H          98.7339    1.2173  -23.3205 H      401  NNA401      0.0000
     92 H         100.1693    1.4046  -22.2715 H      401  NNA401      0.0000
     93 H          98.8731    0.2685  -21.7998 H      401  NNA401      0.0000
     94 H         103.5694   -1.3393  -20.1060 H      401  NNA401      0.0000
     95 H         105.9906   -2.0937  -21.8091 H      401  NNA401      0.0000
     96 H         107.3428   -1.6438  -19.7271 H      401  NNA401      0.0000
     97 H         105.8934   -0.9114  -18.9808 H      401  NNA401      0.0000
     98 H         105.8609    0.8592  -20.6743 H      401  NNA401      0.0000
     99 H         107.0696    0.0328  -21.6870 H      401  NNA401      0.0000
    100 H         107.8695    2.0382  -20.2815 H      401  NNA401      0.0000
    101 H         108.8604    0.5572  -20.2463 H      401  NNA401      0.0000
    102 H         108.5501    1.5801  -17.9757 H      401  NNA401      0.0000
    103 H         107.9498   -0.0933  -18.0350 H      401  NNA401      0.0000
    104 H         106.7937    1.2822  -18.0786 H      401  NNA401      0.0000
    105 H         103.6308   -3.9125  -20.7724 H      401  NNA401      0.0000
    106 H         105.1903   -3.4612  -19.1743 H      401  NNA401      0.0000
    107 H         106.2039   -4.5994  -22.3613 H      401  NNA401      0.0000
    108 H         108.3219   -6.3585  -21.2653 H      401  NNA401      0.0000
    109 H         110.2806   -5.2400  -22.1733 H      401  NNA401      0.0000
    110 H         109.2189   -3.7968  -22.7257 H      401  NNA401      0.0000
    111 H         107.9010   -5.2989  -24.1223 H      401  NNA401      0.0000
    112 H         108.9584   -6.7448  -23.5694 H      401  NNA401      0.0000
@<TRIPOS>BOND
     1     1     2    2
     2     1     3    1
     3     1    18    1
     4     3     4    1
     5     3    50    1
     6     4     5    1
     7     4     6    1
     8     4    10    1
     9     5     7    1
    10     5    51    1
    11     5    52    1
    12     6     8    1
    13     6    53    1
    14     6    54    1
    15     7     9    1
    16     7    55    1
    17     7    56    1
    18     8     9    1
    19     8    57    1
    20     8    58    1
    21     9    59    1
    22     9    60    1
    23    10    11    1
    24    10    61    1
    25    10    62    1
    26    11    12    2
    27    11    13    2
    28    11    14    1
    29    14    15    1
    30    14    16    1
    31    14    17    1
    32    15    63    1
    33    15    64    1
    34    15    65    1
    35    16    66    1
    36    16    67    1
    37    16    68    1
    38    17    69    1
    39    17    70    1
    40    17    71    1
    41    18    19    1
    42    18    72    1
    43    19    20    1
    44    19    24    1
    45    19    73    1
    46    20    21    1
    47    20    22    1
    48    20    23    1
    49    21    74    1
    50    21    75    1
    51    21    76    1
    52    22    77    1
    53    22    78    1
    54    22    79    1
    55    23    80    1
    56    23    81    1
    57    23    82    1
    58    24    25    2
    59    24    26    1
    60    26    27    1
    61    26    28    1
    62    27    30    1
    63    27    83    1
    64    27    84    1
    65    28    29    1
    66    28    34    1
    67    28    85    1
    68    29    30    1
    69    29    31    1
    70    29    86    1
    71    30    31    1
    72    30    87    1
    73    31    32    1
    74    31    33    1
    75    32    88    1
    76    32    89    1
    77    32    90    1
    78    33    91    1
    79    33    92    1
    80    33    93    1
    81    34    35    2
    82    34    36    1
    83    36    37    1
    84    36    94    1
    85    37    38    1
    86    37    43    1
    87    37    95    1
    88    38    39    1
    89    38    96    1
    90    38    97    1
    91    39    40    1
    92    39    98    1
    93    39    99    1
    94    40    41    1
    95    40   100    1
    96    40   101    1
    97    41   102    1
    98    41   103    1
    99    41   104    1
   100    42    43    1
   101    42   105    1
   102    43    49    1
   103    43   106    1
   104    44    49    2
   105    45    46    1
   106    45    49    1
   107    45   107    1
   108    46    47    1
   109    46    48    1
   110    46   108    1
   111    47    48    1
   112    47   109    1
   113    47   110    1
   114    48   111    1
   115    48   112    1

