@<TRIPOS>MOLECULE
NNA_1_A_401
 112 115 0 0 0
SMALL
NO_CHARGES

@<TRIPOS>ATOM
      1 C1        125.1800    4.7440   22.5650 C.2    401  NNA401      0.0000
      2 O2        125.6570    4.3570   23.6560 O.2    401  NNA401      0.0000
      3 N3        125.8480    5.5240   21.6970 N.am   401  NNA401      0.0000
      4 C4        127.1690    6.1250   21.9390 C.3    401  NNA401      0.0000
      5 C5        127.5380    6.9790   20.7210 C.3    401  NNA401      0.0000
      6 C6        128.2520    5.0580   22.1350 C.3    401  NNA401      0.0000
      7 C7        127.8450    6.1420   19.4870 C.3    401  NNA401      0.0000
      8 C8        128.4940    4.2250   20.8860 C.3    401  NNA401      0.0000
      9 C9        128.9350    5.1330   19.7630 C.3    401  NNA401      0.0000
     10 C10       127.0980    6.9890   23.2420 C.3    401  NNA401      0.0000
     11 S11       126.0120    8.3980   23.1750 S.o    401  NNA401      0.0000
     12 O12       124.7900    8.0420   22.5080 O.2    401  NNA401      0.0000
     13 O13       126.7380    9.5100   22.6420 O.2    401  NNA401      0.0000
     14 C14       125.5270    8.7910   24.8710 C.3    401  NNA401      0.0000
     15 C15       124.6870    7.6530   25.4400 C.3    401  NNA401      0.0000
     16 C16       126.8170    8.9610   25.6720 C.3    401  NNA401      0.0000
     17 C17       124.7180   10.0830   24.8700 C.3    401  NNA401      0.0000
     18 N18       123.9270    4.4340   22.1860 N.am   401  NNA401      0.0000
     19 C19       123.1660    3.4080   22.8760 C.3    401  NNA401      0.0000
     20 C20       121.7430    3.8860   23.1750 C.3    401  NNA401      0.0000
     21 C21       120.9820    2.7690   23.8710 C.3    401  NNA401      0.0000
     22 C22       121.8320    5.0900   24.1100 C.3    401  NNA401      0.0000
     23 C23       120.9510    4.2950   21.9330 C.3    401  NNA401      0.0000
     24 C24       123.3160    2.0870   22.1070 C.2    401  NNA401      0.0000
     25 O25       122.9570    2.0020   20.9460 O.2    401  NNA401      0.0000
     26 N26       123.8220    1.0350   22.7730 N.am   401  NNA401      0.0000
     27 C27       124.2270    1.0460   24.1980 C.3    401  NNA401      0.0000
     28 C28       123.9900   -0.2830   22.1530 C.3    401  NNA401      0.0000
     29 C29       124.9190   -1.0220   23.0740 C.3    401  NNA401      0.0000
     30 C30       125.0860   -0.1940   24.3390 C.3    401  NNA401      0.0000
     31 C31       126.2740   -0.4670   23.4320 C.3    401  NNA401      0.0000
     32 C32       127.2860   -1.4620   23.9630 C.3    401  NNA401      0.0000
     33 C33       126.9310    0.6640   22.6680 C.3    401  NNA401      0.0000
     34 C34       122.6600   -0.9980   22.1240 C.2    401  NNA401      0.0000
     35 O35       122.0070   -1.0820   23.1580 O.2    401  NNA401      0.0000
     36 N36       122.2170   -1.4410   20.9440 N.am   401  NNA401      0.0000
     37 C37       120.8690   -2.0230   20.8060 C.3    401  NNA401      0.0000
     38 C38       119.9780   -1.1000   19.9560 C.3    401  NNA401      0.0000
     39 C39       119.6050    0.2180   20.6290 C.3    401  NNA401      0.0000
     40 C40       118.5010    0.9780   19.9360 C.3    401  NNA401      0.0000
     41 C41       118.5940    0.9260   18.4470 C.3    401  NNA401      0.0000
     42 O42       121.8750   -4.2320   20.9640 O.3    401  NNA401      0.0000
     43 C43       120.9240   -3.4780   20.2560 C.3    401  NNA401      0.0000
     44 O44       118.7770   -4.2060   19.5520 O.2    401  NNA401      0.0000
     45 N45       119.4180   -4.7280   21.6690 N.am   401  NNA401      0.0000
     46 C46       118.2590   -5.5290   21.9430 C.3    401  NNA401      0.0000
     47 C47       117.0550   -4.8570   22.5100 C.3    401  NNA401      0.0000
     48 C48       117.8620   -5.7750   23.3620 C.3    401  NNA401      0.0000
     49 C49       119.6120   -4.1670   20.4510 C.2    401  NNA401      0.0000
     50 H         125.3798    5.7553   20.8116 H      401  NNA401      0.0000
     51 H         128.4341    7.5969   20.9636 H      401  NNA401      0.0000
     52 H         126.7238    7.6985   20.4767 H      401  NNA401      0.0000
     53 H         127.9912    4.3829   22.9803 H      401  NNA401      0.0000
     54 H         129.2088    5.5487   22.4298 H      401  NNA401      0.0000
     55 H         128.1627    6.8137   18.6554 H      401  NNA401      0.0000
     56 H         126.9263    5.6239   19.1286 H      401  NNA401      0.0000
     57 H         127.5739    3.6635   20.6042 H      401  NNA401      0.0000
     58 H         129.2820    3.4626   21.0882 H      401  NNA401      0.0000
     59 H         129.8884    5.6475   20.0239 H      401  NNA401      0.0000
     60 H         129.1370    4.5319   18.8461 H      401  NNA401      0.0000
     61 H         128.1031    7.3867   23.4949 H      401  NNA401      0.0000
     62 H         126.7924    6.3691   24.1038 H      401  NNA401      0.0000
     63 H         124.3692    7.8716   26.4828 H      401  NNA401      0.0000
     64 H         125.2260    6.6839   25.4811 H      401  NNA401      0.0000
     65 H         123.7546    7.4844   24.8603 H      401  NNA401      0.0000
     66 H         126.5979    9.2550   26.7217 H      401  NNA401      0.0000
     67 H         127.4773    9.7542   25.2583 H      401  NNA401      0.0000
     68 H         127.4190    8.0299   25.7356 H      401  NNA401      0.0000
     69 H         124.4019   10.3666   25.8975 H      401  NNA401      0.0000
     70 H         123.7897   10.0004   24.2636 H      401  NNA401      0.0000
     71 H         125.2946   10.9445   24.4683 H      401  NNA401      0.0000
     72 H         123.5228    4.8698   21.3479 H      401  NNA401      0.0000
     73 H         123.6133    3.2646   23.8808 H      401  NNA401      0.0000
     74 H         119.9475    3.0777   24.1415 H      401  NNA401      0.0000
     75 H         121.4728    2.4525   24.8177 H      401  NNA401      0.0000
     76 H         120.8848    1.8621   23.2343 H      401  NNA401      0.0000
     77 H         120.8244    5.4499   24.4165 H      401  NNA401      0.0000
     78 H         122.3443    5.9546   23.6332 H      401  NNA401      0.0000
     79 H         122.3855    4.8590   25.0476 H      401  NNA401      0.0000
     80 H         119.9100    4.5946   22.1889 H      401  NNA401      0.0000
     81 H         120.8682    3.4678   21.1950 H      401  NNA401      0.0000
     82 H         121.4013    5.1614   21.4019 H      401  NNA401      0.0000
     83 H         123.3451    0.9652   24.8725 H      401  NNA401      0.0000
     84 H         124.8388    1.9225   24.5007 H      401  NNA401      0.0000
     85 H         124.4414   -0.2205   21.1370 H      401  NNA401      0.0000
     86 H         124.7939   -2.0982   23.1724 H      401  NNA401      0.0000
     87 H         125.0838   -0.7025   25.3005 H      401  NNA401      0.0000
     88 H         128.0081   -0.9637   24.6471 H      401  NNA401      0.0000
     89 H         127.8629   -1.9193   23.1289 H      401  NNA401      0.0000
     90 H         126.8057   -2.2898   24.5296 H      401  NNA401      0.0000
     91 H         127.6409    1.2182   23.3210 H      401  NNA401      0.0000
     92 H         126.2067    1.4038   22.2702 H      401  NNA401      0.0000
     93 H         127.5043    0.2685   21.8007 H      401  NNA401      0.0000
     94 H         122.8137   -1.3606   20.1096 H      401  NNA401      0.0000
     95 H         120.3855   -2.0938   21.8091 H      401  NNA401      0.0000
     96 H         119.0332   -1.6437   19.7270 H      401  NNA401      0.0000
     97 H         120.4826   -0.9113   18.9808 H      401  NNA401      0.0000
     98 H         120.5151    0.8592   20.6744 H      401  NNA401      0.0000
     99 H         119.3064    0.0328   21.6870 H      401  NNA401      0.0000
    100 H         118.5070    2.0383   20.2814 H      401  NNA401      0.0000
    101 H         117.5154    0.5577   20.2464 H      401  NNA401      0.0000
    102 H         117.8295    1.5842   17.9757 H      401  NNA401      0.0000
    103 H         118.4208   -0.0924   18.0349 H      401  NNA401      0.0000
    104 H         119.5842    1.2770   18.0787 H      401  NNA401      0.0000
    105 H         122.0091   -5.0589   20.5187 H      401  NNA401      0.0000
    106 H         121.1920   -3.4498   19.1760 H      401  NNA401      0.0000
    107 H         120.1636   -4.5866   22.3683 H      401  NNA401      0.0000
    108 H         118.0541   -6.3585   21.2652 H      401  NNA401      0.0000
    109 H         116.0954   -5.2399   22.1733 H      401  NNA401      0.0000
    110 H         117.1570   -3.7968   22.7257 H      401  NNA401      0.0000
    111 H         118.4748   -5.2990   24.1224 H      401  NNA401      0.0000
    112 H         117.4176   -6.7448   23.5694 H      401  NNA401      0.0000
@<TRIPOS>BOND
     1     1     2    2
     2     1     3    1
     3     1    18    1
     4     3     4    1
     5     3    50    1
     6     4     5    1
     7     4     6    1
     8     4    10    1
     9     5     7    1
    10     5    51    1
    11     5    52    1
    12     6     8    1
    13     6    53    1
    14     6    54    1
    15     7     9    1
    16     7    55    1
    17     7    56    1
    18     8     9    1
    19     8    57    1
    20     8    58    1
    21     9    59    1
    22     9    60    1
    23    10    11    1
    24    10    61    1
    25    10    62    1
    26    11    12    2
    27    11    13    2
    28    11    14    1
    29    14    15    1
    30    14    16    1
    31    14    17    1
    32    15    63    1
    33    15    64    1
    34    15    65    1
    35    16    66    1
    36    16    67    1
    37    16    68    1
    38    17    69    1
    39    17    70    1
    40    17    71    1
    41    18    19    1
    42    18    72    1
    43    19    20    1
    44    19    24    1
    45    19    73    1
    46    20    21    1
    47    20    22    1
    48    20    23    1
    49    21    74    1
    50    21    75    1
    51    21    76    1
    52    22    77    1
    53    22    78    1
    54    22    79    1
    55    23    80    1
    56    23    81    1
    57    23    82    1
    58    24    25    2
    59    24    26    1
    60    26    27    1
    61    26    28    1
    62    27    30    1
    63    27    83    1
    64    27    84    1
    65    28    29    1
    66    28    34    1
    67    28    85    1
    68    29    30    1
    69    29    31    1
    70    29    86    1
    71    30    31    1
    72    30    87    1
    73    31    32    1
    74    31    33    1
    75    32    88    1
    76    32    89    1
    77    32    90    1
    78    33    91    1
    79    33    92    1
    80    33    93    1
    81    34    35    2
    82    34    36    1
    83    36    37    1
    84    36    94    1
    85    37    38    1
    86    37    43    1
    87    37    95    1
    88    38    39    1
    89    38    96    1
    90    38    97    1
    91    39    40    1
    92    39    98    1
    93    39    99    1
    94    40    41    1
    95    40   100    1
    96    40   101    1
    97    41   102    1
    98    41   103    1
    99    41   104    1
   100    42    43    1
   101    42   105    1
   102    43    49    1
   103    43   106    1
   104    44    49    2
   105    45    46    1
   106    45    49    1
   107    45   107    1
   108    46    47    1
   109    46    48    1
   110    46   108    1
   111    47    48    1
   112    47   109    1
   113    47   110    1
   114    48   111    1
   115    48   112    1

