@<TRIPOS>MOLECULE
EDO_1_E_201
 10 9 0 0 0
SMALL
NO_CHARGES

@<TRIPOS>ATOM
      1 C1         14.7610  -23.7840   50.6620 C.3    201  EDO201      0.0000
      2 O1         15.5400  -24.5040   51.6280 O.3    201  EDO201      0.0000
      3 C2         15.6820  -23.3110   49.5470 C.3    201  EDO201      0.0000
      4 O2         16.0100  -24.3810   48.6510 O.3    201  EDO201      0.0000
      5 H          14.2635  -22.9221   51.1552 H      201  EDO201      0.0000
      6 H          13.9620  -24.4429   50.2650 H      201  EDO201      0.0000
      7 H          16.0051  -23.8812   52.1714 H      201  EDO201      0.0000
      8 H          16.6109  -22.8677   49.9638 H      201  EDO201      0.0000
      9 H          15.1755  -22.5099   48.9671 H      201  EDO201      0.0000
     10 H          16.6398  -24.0612   48.0182 H      201  EDO201      0.0000
@<TRIPOS>BOND
     1     1     2    1
     2     1     3    1
     3     1     5    1
     4     1     6    1
     5     2     7    1
     6     3     4    1
     7     3     8    1
     8     3     9    1
     9     4    10    1

