@<TRIPOS>MOLECULE
EDO_1_C_201
 10 9 0 0 0
SMALL
NO_CHARGES

@<TRIPOS>ATOM
      1 C1         35.2120  -22.8560   50.4270 C.3    201  EDO201      0.0000
      2 O1         34.3780  -23.2990   51.4970 O.3    201  EDO201      0.0000
      3 C2         36.4290  -22.0710   50.8470 C.3    201  EDO201      0.0000
      4 O2         37.3630  -21.7360   49.8390 O.3    201  EDO201      0.0000
      5 H          34.6057  -22.2395   49.7290 H      201  EDO201      0.0000
      6 H          35.5399  -23.7477   49.8505 H      201  EDO201      0.0000
      7 H          33.6145  -23.7233   51.1276 H      201  EDO201      0.0000
      8 H          36.9622  -22.6320   51.6450 H      201  EDO201      0.0000
      9 H          36.0941  -21.1259   51.3243 H      201  EDO201      0.0000
     10 H          37.8361  -22.5202   49.5940 H      201  EDO201      0.0000
@<TRIPOS>BOND
     1     1     2    1
     2     1     3    1
     3     1     5    1
     4     1     6    1
     5     2     7    1
     6     3     4    1
     7     3     8    1
     8     3     9    1
     9     4    10    1

