@<TRIPOS>MOLECULE
EDO_1_A_603
 10 9 0 0 0
SMALL
NO_CHARGES

@<TRIPOS>ATOM
      1 C1         16.4970  -22.3770   36.8330 C.3    603  EDO603      0.0000
      2 O1         16.2240  -22.7120   38.2060 O.3    603  EDO603      0.0000
      3 C2         16.4270  -20.8570   36.7070 C.3    603  EDO603      0.0000
      4 O2         16.8420  -20.3640   35.4130 O.3    603  EDO603      0.0000
      5 H          15.7545  -22.8618   36.1652 H      603  EDO603      0.0000
      6 H          17.5063  -22.7466   36.5553 H      603  EDO603      0.0000
      7 H          16.2087  -23.6571   38.2821 H      603  EDO603      0.0000
      8 H          17.0544  -20.3806   37.4908 H      603  EDO603      0.0000
      9 H          15.3862  -20.5169   36.8898 H      603  EDO603      0.0000
     10 H          17.7890  -20.3219   35.4020 H      603  EDO603      0.0000
@<TRIPOS>BOND
     1     1     2    1
     2     1     3    1
     3     1     5    1
     4     1     6    1
     5     2     7    1
     6     3     4    1
     7     3     8    1
     8     3     9    1
     9     4    10    1

