@<TRIPOS>MOLECULE
DMS_2_A_408
 10 9 0 0 0
SMALL
NO_CHARGES

@<TRIPOS>ATOM
      1 S          -6.5240   30.3120    0.8390 S.o    408  DMS408      0.0000
      2 O          -6.5960   28.9330    1.4090 O.2    408  DMS408      0.0000
      3 C1         -7.2680   31.5110    1.9770 C.3    408  DMS408      0.0000
      4 C2         -4.8080   30.8910    0.8050 C.3    408  DMS408      0.0000
      5 H          -7.1690   32.5325    1.5564 H      408  DMS408      0.0000
      6 H          -6.7574   31.4618    2.9606 H      408  DMS408      0.0000
      7 H          -8.3432   31.2721    2.1083 H      408  DMS408      0.0000
      8 H          -4.7744   31.9293    0.4163 H      408  DMS408      0.0000
      9 H          -4.2127   30.2322    0.1402 H      408  DMS408      0.0000
     10 H          -4.3817   30.8625    1.8287 H      408  DMS408      0.0000
@<TRIPOS>BOND
     1     1     2    2
     2     1     3    1
     3     1     4    1
     4     3     5    1
     5     3     6    1
     6     3     7    1
     7     4     8    1
     8     4     9    1
     9     4    10    1

