@<TRIPOS>MOLECULE
DMS_1_A_406
 10 9 0 0 0
SMALL
NO_CHARGES

@<TRIPOS>ATOM
      1 S           7.1000  -21.1610   28.7370 S.o    406  DMS406      0.0000
      2 O           8.1220  -20.8420   29.7850 O.2    406  DMS406      0.0000
      3 C1          6.9960  -22.9580   28.5190 C.3    406  DMS406      0.0000
      4 C2          5.4360  -20.8420   29.3880 C.3    406  DMS406      0.0000
      5 H           6.1934  -23.1983   27.7921 H      406  DMS406      0.0000
      6 H           6.7763  -23.4439   29.4918 H      406  DMS406      0.0000
      7 H           7.9643  -23.3349   28.1309 H      406  DMS406      0.0000
      8 H           4.6787  -21.1431   28.6355 H      406  DMS406      0.0000
      9 H           5.3291  -19.7585   29.6000 H      406  DMS406      0.0000
     10 H           5.2809  -21.4164   30.3243 H      406  DMS406      0.0000
@<TRIPOS>BOND
     1     1     2    2
     2     1     3    1
     3     1     4    1
     4     3     5    1
     5     3     6    1
     6     3     7    1
     7     4     8    1
     8     4     9    1
     9     4    10    1

