DMS_1_A_406
  -ISIS-            3D

 10  9  0  0  0  0  0  0  0  0  1 V2000
    7.1000  -21.1610   28.7370 S   0  0  0  0  0
    8.1220  -20.8420   29.7850 O   0  0  0  0  0
    6.9960  -22.9580   28.5190 C   0  0  0  0  0
    5.4360  -20.8420   29.3880 C   0  0  0  0  0
    6.1934  -23.1983   27.7921 H   0  0  0  0  0
    6.7763  -23.4439   29.4918 H   0  0  0  0  0
    7.9643  -23.3349   28.1309 H   0  0  0  0  0
    4.6787  -21.1431   28.6355 H   0  0  0  0  0
    5.3291  -19.7585   29.6000 H   0  0  0  0  0
    5.2809  -21.4164   30.3243 H   0  0  0  0  0
  1  2  2  0  0  0
  1  3  1  0  0  0
  1  4  1  0  0  0
  3  5  1  0  0  0
  3  6  1  0  0  0
  3  7  1  0  0  0
  4  8  1  0  0  0
  4  9  1  0  0  0
  4 10  1  0  0  0
M  END
$$$$
