@<TRIPOS>MOLECULE
DMS_2_A_405
 10 9 0 0 0
SMALL
NO_CHARGES

@<TRIPOS>ATOM
      1 S          -6.0960    0.3920  -18.2180 S.o    405  DMS405      0.0000
      2 O          -7.3060    0.9000  -17.5190 O.2    405  DMS405      0.0000
      3 C1         -6.5850   -0.3620  -19.7960 C.3    405  DMS405      0.0000
      4 C2         -5.1110    1.7790  -18.8520 C.3    405  DMS405      0.0000
      5 H          -5.6799   -0.6859  -20.3492 H      405  DMS405      0.0000
      6 H          -7.1522    0.3716  -20.4049 H      405  DMS405      0.0000
      7 H          -7.2251   -1.2453  -19.5950 H      405  DMS405      0.0000
      8 H          -4.2496    1.3887  -19.4315 H      405  DMS405      0.0000
      9 H          -4.7346    2.3788  -17.9982 H      405  DMS405      0.0000
     10 H          -5.7391    2.4211  -19.5030 H      405  DMS405      0.0000
@<TRIPOS>BOND
     1     1     2    2
     2     1     3    1
     3     1     4    1
     4     3     5    1
     5     3     6    1
     6     3     7    1
     7     4     8    1
     8     4     9    1
     9     4    10    1

