DMS_2_A_407
  -ISIS-            3D

 10  9  0  0  0  0  0  0  0  0  1 V2000
  -20.9700  -16.2140   -4.7880 S   0  0  0  0  0
  -19.9100  -16.9340   -5.5580 O   0  0  0  0  0
  -20.2420  -14.8360   -3.8640 C   0  0  0  0  0
  -22.0520  -15.3080   -5.9310 C   0  0  0  0  0
  -21.0435  -14.2748   -3.3416 H   0  0  0  0  0
  -19.7055  -14.1586   -4.5596 H   0  0  0  0  0
  -19.5275  -15.2348   -3.1152 H   0  0  0  0  0
  -22.8039  -14.7331   -5.3527 H   0  0  0  0  0
  -22.5731  -16.0310   -6.5914 H   0  0  0  0  0
  -21.4474  -14.6139   -6.5500 H   0  0  0  0  0
  1  2  2  0  0  0
  1  3  1  0  0  0
  1  4  1  0  0  0
  3  5  1  0  0  0
  3  6  1  0  0  0
  3  7  1  0  0  0
  4  8  1  0  0  0
  4  9  1  0  0  0
  4 10  1  0  0  0
M  END
$$$$
