@<TRIPOS>MOLECULE
DMS_2_A_402
 10 9 0 0 0
SMALL
NO_CHARGES

@<TRIPOS>ATOM
      1 S          -6.1840   -1.0440    6.2780 S.o    402  DMS402      0.0000
      2 O          -7.0000   -0.6680    7.4490 O.2    402  DMS402      0.0000
      3 C1         -5.8520   -2.8230    6.2650 C.3    402  DMS402      0.0000
      4 C2         -7.2120   -0.9100    4.7690 C.3    402  DMS402      0.0000
      5 H          -5.2986   -3.0909    5.3419 H      402  DMS402      0.0000
      6 H          -6.8080   -3.3846    6.3027 H      402  DMS402      0.0000
      7 H          -5.2364   -3.0865    7.1492 H      402  DMS402      0.0000
      8 H          -6.6221   -1.2391    3.8893 H      402  DMS402      0.0000
      9 H          -7.5191    0.1467    4.6300 H      402  DMS402      0.0000
     10 H          -8.1149   -1.5459    4.8730 H      402  DMS402      0.0000
@<TRIPOS>BOND
     1     1     2    2
     2     1     3    1
     3     1     4    1
     4     3     5    1
     5     3     6    1
     6     3     7    1
     7     4     8    1
     8     4     9    1
     9     4    10    1

