@<TRIPOS>MOLECULE
EDO_1_A_404
 10 9 0 0 0
SMALL
NO_CHARGES

@<TRIPOS>ATOM
      1 C1        -74.2820   26.4260   -0.9770 C.3    404  EDO404      0.0000
      2 O1        -74.7230   25.4360   -0.0390 O.3    404  EDO404      0.0000
      3 C2        -73.2400   27.3340   -0.3280 C.3    404  EDO404      0.0000
      4 O2        -73.1690   28.5660   -1.0590 O.3    404  EDO404      0.0000
      5 H         -75.1596   27.0260   -1.2998 H      404  EDO404      0.0000
      6 H         -73.8630   25.9352   -1.8804 H      404  EDO404      0.0000
      7 H         -75.3850   24.9044   -0.4608 H      404  EDO404      0.0000
      8 H         -72.2456   26.8409   -0.3091 H      404  EDO404      0.0000
      9 H         -73.5272   27.5556    0.7219 H      404  EDO404      0.0000
     10 H         -72.5380   29.1277   -0.6287 H      404  EDO404      0.0000
@<TRIPOS>BOND
     1     1     2    1
     2     1     3    1
     3     1     5    1
     4     1     6    1
     5     2     7    1
     6     3     4    1
     7     3     8    1
     8     3     9    1
     9     4    10    1

