EDO_2_A_404
  -ISIS-            3D

 10  9  0  0  0  0  0  0  0  0  1 V2000
  -61.1610   53.0810   -0.9770 C   0  0  0  0  0
  -60.0830   53.1940   -0.0390 O   0  0  0  0  0
  -62.4680   53.5300   -0.3280 C   0  0  0  0  0
  -63.5700   52.9760   -1.0590 O   0  0  0  0  0
  -61.2377   52.0293   -1.3270 H   0  0  0  0  0
  -60.9373   53.7032   -1.8679 H   0  0  0  0  0
  -59.8892   52.3332    0.3072 H   0  0  0  0  0
  -62.5444   54.6367   -0.3281 H   0  0  0  0  0
  -62.5181   53.1974    0.7307 H   0  0  0  0  0
  -63.8977   52.2199   -0.5892 H   0  0  0  0  0
  1  2  1  0  0  0
  1  3  1  0  0  0
  1  5  1  0  0  0
  1  6  1  0  0  0
  2  7  1  0  0  0
  3  4  1  0  0  0
  3  8  1  0  0  0
  3  9  1  0  0  0
  4 10  1  0  0  0
M  END
$$$$
