EDO_3_A_404
  -ISIS-            3D

 10  9  0  0  0  0  0  0  0  0  1 V2000
  -90.8050   51.1170   -0.9770 C   0  0  0  0  0
  -91.4420   51.9940   -0.0390 O   0  0  0  0  0
  -90.5400   49.7610   -0.3280 C   0  0  0  0  0
  -89.5090   49.0830   -1.0590 O   0  0  0  0  0
  -89.8465   51.5769   -1.2996 H   0  0  0  0  0
  -91.4394   50.9996   -1.8805 H   0  0  0  0  0
  -91.5706   52.8334   -0.4606 H   0  0  0  0  0
  -91.4644   49.1466   -0.3086 H   0  0  0  0  0
  -90.2042   49.8991    0.7218 H   0  0  0  0  0
  -89.3373   48.2564   -0.6277 H   0  0  0  0  0
  1  2  1  0  0  0
  1  3  1  0  0  0
  1  5  1  0  0  0
  1  6  1  0  0  0
  2  7  1  0  0  0
  3  4  1  0  0  0
  3  8  1  0  0  0
  3  9  1  0  0  0
  4 10  1  0  0  0
M  END
$$$$
