@<TRIPOS>MOLECULE
UVC_2_A_401
 34 36 0 0 0
SMALL
NO_CHARGES

@<TRIPOS>ATOM
      1 N1        -46.8240   40.2220  -25.9770 N.ar   401  UVC401      0.0000
      2 C2        -47.4740   41.3930  -26.0640 C.ar   401  UVC401      0.0000
      3 N3        -47.3920   42.3050  -25.0830 N.ar   401  UVC401      0.0000
      4 C4        -46.6550   42.0740  -23.9890 C.ar   401  UVC401      0.0000
      5 C5        -45.9680   40.8730  -23.8710 C.ar   401  UVC401      0.0000
      6 C6        -46.0730   39.9470  -24.9020 C.ar   401  UVC401      0.0000
      7 O2        -48.1730   41.6400  -27.0710 O.2    401  UVC401      0.0000
      8 O4        -46.5870   42.9340  -23.0830 O.2    401  UVC401      0.0000
      9 C1'       -46.9160   39.2260  -27.0700 C.3    401  UVC401      0.0000
     10 C2'       -45.9920   39.5810  -28.2410 C.3    401  UVC401      0.0000
     11 O2'       -46.6030   39.1920  -29.4610 O.3    401  UVC401      0.0000
     12 C3'       -44.7860   38.6860  -27.9810 C.3    401  UVC401      0.0000
     13 C4'       -45.4230   37.4500  -27.3670 C.3    401  UVC401      0.0000
     14 O3'       -44.0840   38.3970  -29.1780 O.3    401  UVC401      0.0000
     15 O4'       -46.5030   37.9780  -26.5600 O.3    401  UVC401      0.0000
     16 C5'       -44.5250   36.5950  -26.5100 C.3    401  UVC401      0.0000
     17 O5'       -44.1540   37.2680  -25.3160 O.3    401  UVC401      0.0000
     18 V         -45.2920   38.4290  -30.7730 V      401  UVC401      0.0000
     19 O1V       -43.8940   37.6600  -32.1450 O.3    401  UVC401      0.0000
     20 O2V       -45.4300   40.1570  -31.9700 O.3    401  UVC401      0.0000
     21 O3V       -46.5030   36.7370  -31.0850 O.3    401  UVC401      0.0000
     22 H         -45.3629   40.6869  -22.9700 H      401  UVC401      0.0000
     23 H         -45.5422   38.9935  -24.8289 H      401  UVC401      0.0000
     24 H         -47.9645   39.1399  -27.4284 H      401  UVC401      0.0000
     25 H         -45.7130   40.6522  -28.2787 H      401  UVC401      0.0000
     26 H         -44.1027   39.1675  -27.2514 H      401  UVC401      0.0000
     27 H         -45.8577   36.8235  -28.1759 H      401  UVC401      0.0000
     28 H         -43.6137   36.3100  -27.0767 H      401  UVC401      0.0000
     29 H         -45.0507   35.6530  -26.2437 H      401  UVC401      0.0000
     30 H         -43.6215   36.6804  -24.7966 H      401  UVC401      0.0000
     31 H         -43.1635   37.4122  -31.5939 H      401  UVC401      0.0000
     32 H         -46.2898   40.5002  -31.7640 H      401  UVC401      0.0000
     33 H         -47.2184   37.0741  -31.6072 H      401  UVC401      0.0000
     34 H         -47.9030   43.1927  -25.1740 H      401  UVC401      0.0000
@<TRIPOS>BOND
     1     1     2   ar
     2     1     6   ar
     3     1     9    1
     4     2     3   ar
     5     2     7    2
     6     3     4   ar
     7     4     5   ar
     8     4     8    2
     9     5     6   ar
    10     5    22    1
    11     6    23    1
    12     9    10    1
    13     9    15    1
    14     9    24    1
    15    10    11    1
    16    10    12    1
    17    10    25    1
    18    11    18    1
    19    12    13    1
    20    12    14    1
    21    12    26    1
    22    13    15    1
    23    13    16    1
    24    13    27    1
    25    14    18    1
    26    16    17    1
    27    16    28    1
    28    16    29    1
    29    17    30    1
    30    18    19    1
    31    18    20    1
    32    18    21    1
    33    19    31    1
    34    20    32    1
    35    21    33    1
    36     3    34    1

