@<TRIPOS>MOLECULE
UVC_3_B_401
 34 36 0 0 0
SMALL
NO_CHARGES

@<TRIPOS>ATOM
      1 N1        -98.1870   25.7010   25.4000 N.ar   401  UVC401      0.0000
      2 C2        -98.1930   27.0270   25.5890 C.ar   401  UVC401      0.0000
      3 N3        -98.6970   27.8530   24.6620 N.ar   401  UVC401      0.0000
      4 C4        -99.2120   27.3730   23.5240 C.ar   401  UVC401      0.0000
      5 C5        -99.2220   26.0030   23.3050 C.ar   401  UVC401      0.0000
      6 C6        -98.6930   25.1700   24.2810 C.ar   401  UVC401      0.0000
      7 O2        -97.7150   27.5030   26.6400 O.2    401  UVC401      0.0000
      8 O4        -99.6820   28.1500   22.6640 O.2    401  UVC401      0.0000
      9 C1'       -97.6260   24.8090   26.4390 C.3    401  UVC401      0.0000
     10 C2'       -98.6380   24.5300   27.5560 C.3    401  UVC401      0.0000
     11 O2'       -97.9580   24.4880   28.8020 O.3    401  UVC401      0.0000
     12 C3'       -99.1360   23.1320   27.1970 C.3    401  UVC401      0.0000
     13 C4'       -97.9050   22.4950   26.5780 C.3    401  UVC401      0.0000
     14 O3'       -99.5920   22.4230   28.3320 O.3    401  UVC401      0.0000
     15 O4'       -97.2980   23.5760   25.8360 O.3    401  UVC401      0.0000
     16 C5'       -98.1560   21.3240   25.6600 C.3    401  UVC401      0.0000
     17 O5'       -99.0730   21.6590   24.6280 O.3    401  UVC401      0.0000
     18 V         -98.6450   23.0270   29.9860 V      401  UVC401      0.0000
     19 O1V       -99.4270   21.4530   31.1460 O.3    401  UVC401      0.0000
     20 O2V       -99.5340   24.4500   31.2540 O.3    401  UVC401      0.0000
     21 O3V       -96.6840   22.3620   30.3630 O.3    401  UVC401      0.0000
     22 H         -99.6482   25.6136   22.3672 H      401  UVC401      0.0000
     23 H         -98.6898   24.0829   24.1367 H      401  UVC401      0.0000
     24 H         -96.7016   25.2493   26.8718 H      401  UVC401      0.0000
     25 H         -99.4654   25.2653   27.5981 H      401  UVC401      0.0000
     26 H         -99.9522   23.2039   26.4492 H      401  UVC401      0.0000
     27 H         -97.2036   22.1826   27.3820 H      401  UVC401      0.0000
     28 H         -98.5623   20.4721   26.2458 H      401  UVC401      0.0000
     29 H         -97.2006   20.9819   25.2085 H      401  UVC401      0.0000
     30 H         -99.2244   20.8855   24.1014 H      401  UVC401      0.0000
     31 H         -98.7103   20.8327   31.1743 H      401  UVC401      0.0000
     32 H         -99.4082   25.2683   30.7915 H      401  UVC401      0.0000
     33 H         -96.2233   23.1611   30.5808 H      401  UVC401      0.0000
     34 H         -98.6867   28.8678   24.8284 H      401  UVC401      0.0000
@<TRIPOS>BOND
     1     1     2   ar
     2     1     6   ar
     3     1     9    1
     4     2     3   ar
     5     2     7    2
     6     3     4   ar
     7     4     5   ar
     8     4     8    2
     9     5     6   ar
    10     5    22    1
    11     6    23    1
    12     9    10    1
    13     9    15    1
    14     9    24    1
    15    10    11    1
    16    10    12    1
    17    10    25    1
    18    11    18    1
    19    12    13    1
    20    12    14    1
    21    12    26    1
    22    13    15    1
    23    13    16    1
    24    13    27    1
    25    14    18    1
    26    16    17    1
    27    16    28    1
    28    16    29    1
    29    17    30    1
    30    18    19    1
    31    18    20    1
    32    18    21    1
    33    19    31    1
    34    20    32    1
    35    21    33    1
    36     3    34    1

