UVC_3_A_401
  -ISIS-            3D

 34 36  0  0  0  0  0  0  0  0  1 V2000
  -86.8380   69.9630  -25.9770 N   0  0  0  0  0
  -87.5260   68.8140  -26.0640 C   0  0  0  0  0
  -88.3570   68.4300  -25.0830 N   0  0  0  0  0
  -88.5260   69.1830  -23.9890 C   0  0  0  0  0
  -87.8290   70.3780  -23.8710 C   0  0  0  0  0
  -86.9750   70.7510  -24.9020 C   0  0  0  0  0
  -87.3900   68.0850  -27.0710 O   0  0  0  0  0
  -89.3050   68.8120  -23.0830 O   0  0  0  0  0
  -85.9290   70.3810  -27.0700 C   0  0  0  0  0
  -86.6980   71.0040  -28.2410 C   0  0  0  0  0
  -86.0560   70.6690  -29.4610 O   0  0  0  0  0
  -86.5260   72.4950  -27.9810 C   0  0  0  0  0
  -85.1370   72.5620  -27.3670 C   0  0  0  0  0
  -86.6270   73.2480  -29.1780 O   0  0  0  0  0
  -85.0550   71.3620  -26.5600 O   0  0  0  0  0
  -84.8460   73.7670  -26.5100 C   0  0  0  0  0
  -85.6140   73.7520  -25.3160 O   0  0  0  0  0
  -86.0510   72.1850  -30.7730 V   0  0  0  0  0
  -86.0830   73.7810  -32.1450 O   0  0  0  0  0
  -87.4780   71.2030  -31.9700 O   0  0  0  0  0
  -83.9790   71.9830  -31.0850 O   0  0  0  0  0
  -87.9700   70.9946  -22.9696 H   0  0  0  0  0
  -86.4145   71.6873  -24.8288 H   0  0  0  0  0
  -85.3302   69.5160  -27.4284 H   0  0  0  0  0
  -87.7652   70.7102  -28.2786 H   0  0  0  0  0
  -87.2846   72.8461  -27.2514 H   0  0  0  0  0
  -84.3770   72.4988  -28.1757 H   0  0  0  0  0
  -85.0546   74.6987  -27.0766 H   0  0  0  0  0
  -83.7673   73.7827  -26.2441 H   0  0  0  0  0
  -85.3642   74.5014  -24.7918 H   0  0  0  0  0
  -86.1044   74.5459  -31.5855 H   0  0  0  0  0
  -87.7697   71.8867  -32.5583 H   0  0  0  0  0
  -83.8785   71.0566  -31.2592 H   0  0  0  0  0
  -88.8702   67.5437  -25.1750 H   0  0  0  0  0
  1  2  1  0  0  0
  1  6  1  0  0  0
  1  9  1  0  0  0
  2  3  1  0  0  0
  2  7  2  0  0  0
  3  4  1  0  0  0
  4  5  1  0  0  0
  4  8  2  0  0  0
  5  6  2  0  0  0
  5 22  1  0  0  0
  6 23  1  0  0  0
  9 10  1  0  0  0
  9 15  1  0  0  0
  9 24  1  0  0  0
 10 11  1  0  0  0
 10 12  1  0  0  0
 10 25  1  0  0  0
 11 18  1  0  0  0
 12 13  1  0  0  0
 12 14  1  0  0  0
 12 26  1  0  0  0
 13 15  1  0  0  0
 13 16  1  0  0  0
 13 27  1  0  0  0
 14 18  1  0  0  0
 16 17  1  0  0  0
 16 28  1  0  0  0
 16 29  1  0  0  0
 17 30  1  0  0  0
 18 19  1  0  0  0
 18 20  1  0  0  0
 18 21  1  0  0  0
 19 31  1  0  0  0
 20 32  1  0  0  0
 21 33  1  0  0  0
  3 34  1  0  0  0
M  END
$$$$
