@<TRIPOS>MOLECULE
UVC_3_A_401
 34 36 0 0 0
SMALL
NO_CHARGES

@<TRIPOS>ATOM
      1 N1        -86.8380   69.9630  -25.9770 N.ar   401  UVC401      0.0000
      2 C2        -87.5260   68.8140  -26.0640 C.ar   401  UVC401      0.0000
      3 N3        -88.3570   68.4300  -25.0830 N.ar   401  UVC401      0.0000
      4 C4        -88.5260   69.1830  -23.9890 C.ar   401  UVC401      0.0000
      5 C5        -87.8290   70.3780  -23.8710 C.ar   401  UVC401      0.0000
      6 C6        -86.9750   70.7510  -24.9020 C.ar   401  UVC401      0.0000
      7 O2        -87.3900   68.0850  -27.0710 O.2    401  UVC401      0.0000
      8 O4        -89.3050   68.8120  -23.0830 O.2    401  UVC401      0.0000
      9 C1'       -85.9290   70.3810  -27.0700 C.3    401  UVC401      0.0000
     10 C2'       -86.6980   71.0040  -28.2410 C.3    401  UVC401      0.0000
     11 O2'       -86.0560   70.6690  -29.4610 O.3    401  UVC401      0.0000
     12 C3'       -86.5260   72.4950  -27.9810 C.3    401  UVC401      0.0000
     13 C4'       -85.1370   72.5620  -27.3670 C.3    401  UVC401      0.0000
     14 O3'       -86.6270   73.2480  -29.1780 O.3    401  UVC401      0.0000
     15 O4'       -85.0550   71.3620  -26.5600 O.3    401  UVC401      0.0000
     16 C5'       -84.8460   73.7670  -26.5100 C.3    401  UVC401      0.0000
     17 O5'       -85.6140   73.7520  -25.3160 O.3    401  UVC401      0.0000
     18 V         -86.0510   72.1850  -30.7730 V      401  UVC401      0.0000
     19 O1V       -86.0830   73.7810  -32.1450 O.3    401  UVC401      0.0000
     20 O2V       -87.4780   71.2030  -31.9700 O.3    401  UVC401      0.0000
     21 O3V       -83.9790   71.9830  -31.0850 O.3    401  UVC401      0.0000
     22 H         -87.9700   70.9946  -22.9696 H      401  UVC401      0.0000
     23 H         -86.4145   71.6873  -24.8288 H      401  UVC401      0.0000
     24 H         -85.3302   69.5160  -27.4284 H      401  UVC401      0.0000
     25 H         -87.7652   70.7102  -28.2786 H      401  UVC401      0.0000
     26 H         -87.2846   72.8461  -27.2514 H      401  UVC401      0.0000
     27 H         -84.3770   72.4988  -28.1757 H      401  UVC401      0.0000
     28 H         -85.0546   74.6987  -27.0766 H      401  UVC401      0.0000
     29 H         -83.7673   73.7827  -26.2441 H      401  UVC401      0.0000
     30 H         -85.3642   74.5014  -24.7918 H      401  UVC401      0.0000
     31 H         -86.1044   74.5459  -31.5855 H      401  UVC401      0.0000
     32 H         -87.7697   71.8867  -32.5583 H      401  UVC401      0.0000
     33 H         -83.8785   71.0566  -31.2592 H      401  UVC401      0.0000
     34 H         -88.8702   67.5437  -25.1750 H      401  UVC401      0.0000
@<TRIPOS>BOND
     1     1     2   ar
     2     1     6   ar
     3     1     9    1
     4     2     3   ar
     5     2     7    2
     6     3     4   ar
     7     4     5   ar
     8     4     8    2
     9     5     6   ar
    10     5    22    1
    11     6    23    1
    12     9    10    1
    13     9    15    1
    14     9    24    1
    15    10    11    1
    16    10    12    1
    17    10    25    1
    18    11    18    1
    19    12    13    1
    20    12    14    1
    21    12    26    1
    22    13    15    1
    23    13    16    1
    24    13    27    1
    25    14    18    1
    26    16    17    1
    27    16    28    1
    28    16    29    1
    29    17    30    1
    30    18    19    1
    31    18    20    1
    32    18    21    1
    33    19    31    1
    34    20    32    1
    35    21    33    1
    36     3    34    1

