DMS_1_A_402
  -ISIS-            3D

 10  9  0  0  0  0  0  0  0  0  1 V2000
    7.1260  -21.0940   29.2750 S   0  0  0  0  0
    8.0140  -20.2440   28.4360 O   0  0  0  0  0
    5.4770  -20.4910   29.0270 C   0  0  0  0  0
    6.9430  -22.6310   28.4160 C   0  0  0  0  0
    4.7497  -21.1698   29.5172 H   0  0  0  0  0
    5.2478  -20.4241   27.9435 H   0  0  0  0  0
    5.3838  -19.4818   29.4779 H   0  0  0  0  0
    6.1798  -23.2572   28.9216 H   0  0  0  0  0
    7.9109  -23.1728   28.4229 H   0  0  0  0  0
    6.6373  -22.4534   27.3643 H   0  0  0  0  0
  1  2  2  0  0  0
  1  3  1  0  0  0
  1  4  1  0  0  0
  3  5  1  0  0  0
  3  6  1  0  0  0
  3  7  1  0  0  0
  4  8  1  0  0  0
  4  9  1  0  0  0
  4 10  1  0  0  0
M  END
$$$$
