@<TRIPOS>MOLECULE
15P_1_B_100
 34 33 0 0 0
SMALL
NO_CHARGES

@<TRIPOS>ATOM
      1 O30        13.0620   -6.0610    4.0810 O.3    100  15P100      0.0000
      2 C61        13.2180   -5.7230    2.7050 C.3    100  15P100      0.0000
      3 C62        12.1400   -4.7610    2.2810 C.3    100  15P100      0.0000
      4 O31        11.9670   -4.8000    0.8670 O.3    100  15P100      0.0000
      5 C63        10.5970   -4.8360    0.4770 C.3    100  15P100      0.0000
      6 C64        10.4760   -4.7620   -1.0160 C.3    100  15P100      0.0000
      7 O32         9.2810   -4.0750   -1.3790 O.3    100  15P100      0.0000
      8 C65         9.2550   -3.6970   -2.7520 C.3    100  15P100      0.0000
      9 C66         8.8200   -2.2720   -2.8740 C.3    100  15P100      0.0000
     10 O33         9.1030   -1.7820   -4.1820 O.3    100  15P100      0.0000
     11 C67         8.9810   -0.3640   -4.2740 C.3    100  15P100      0.0000
     12 C68         8.8310    0.0680   -5.7030 C.3    100  15P100      0.0000
     13 O34         8.9310    1.4820   -5.8070 O.3    100  15P100      0.0000
     14 CM          8.6700    2.0160   -7.1010 C.3    100  15P100      0.0000
     15 H          13.4445   -5.3707    4.6065 H      100  15P100      0.0000
     16 H          13.1420   -6.6606    2.1154 H      100  15P100      0.0000
     17 H          14.2297   -5.3061    2.5176 H      100  15P100      0.0000
     18 H          12.3838   -3.7251    2.5948 H      100  15P100      0.0000
     19 H          11.1917   -5.0349    2.7901 H      100  15P100      0.0000
     20 H          10.0744   -3.9684    0.9343 H      100  15P100      0.0000
     21 H          10.1093   -5.7581    0.8572 H      100  15P100      0.0000
     22 H          10.4919   -5.7741   -1.4710 H      100  15P100      0.0000
     23 H          11.3515   -4.2046   -1.4127 H      100  15P100      0.0000
     24 H           8.5662   -4.3699   -3.3032 H      100  15P100      0.0000
     25 H          10.2560   -3.8181   -3.2159 H      100  15P100      0.0000
     26 H           9.3682   -1.6579   -2.1276 H      100  15P100      0.0000
     27 H           7.7360   -2.1732   -2.6564 H      100  15P100      0.0000
     28 H           9.8812    0.1039   -3.8225 H      100  15P100      0.0000
     29 H           8.1006   -0.0145   -3.6939 H      100  15P100      0.0000
     30 H           7.8520   -0.2738   -6.1000 H      100  15P100      0.0000
     31 H           9.6232   -0.3979   -6.3261 H      100  15P100      0.0000
     32 H           8.7922    3.1180   -7.0739 H      100  15P100      0.0000
     33 H           7.6312    1.7859   -7.4159 H      100  15P100      0.0000
     34 H           9.3816    1.6018   -7.8448 H      100  15P100      0.0000
@<TRIPOS>BOND
     1     1     2    1
     2     1    15    1
     3     2     3    1
     4     2    16    1
     5     2    17    1
     6     3     4    1
     7     3    18    1
     8     3    19    1
     9     4     5    1
    10     5     6    1
    11     5    20    1
    12     5    21    1
    13     6     7    1
    14     6    22    1
    15     6    23    1
    16     7     8    1
    17     8     9    1
    18     8    24    1
    19     8    25    1
    20     9    10    1
    21     9    26    1
    22     9    27    1
    23    10    11    1
    24    11    12    1
    25    11    28    1
    26    11    29    1
    27    12    13    1
    28    12    30    1
    29    12    31    1
    30    13    14    1
    31    14    32    1
    32    14    33    1
    33    14    34    1

