15P_1_B_100
  -ISIS-            3D

 34 33  0  0  0  0  0  0  0  0  1 V2000
   13.0620   -6.0610    4.0810 O   0  0  0  0  0
   13.2180   -5.7230    2.7050 C   0  0  0  0  0
   12.1400   -4.7610    2.2810 C   0  0  0  0  0
   11.9670   -4.8000    0.8670 O   0  0  0  0  0
   10.5970   -4.8360    0.4770 C   0  0  0  0  0
   10.4760   -4.7620   -1.0160 C   0  0  0  0  0
    9.2810   -4.0750   -1.3790 O   0  0  0  0  0
    9.2550   -3.6970   -2.7520 C   0  0  0  0  0
    8.8200   -2.2720   -2.8740 C   0  0  0  0  0
    9.1030   -1.7820   -4.1820 O   0  0  0  0  0
    8.9810   -0.3640   -4.2740 C   0  0  0  0  0
    8.8310    0.0680   -5.7030 C   0  0  0  0  0
    8.9310    1.4820   -5.8070 O   0  0  0  0  0
    8.6700    2.0160   -7.1010 C   0  0  0  0  0
   13.4445   -5.3707    4.6065 H   0  0  0  0  0
   13.1420   -6.6606    2.1154 H   0  0  0  0  0
   14.2297   -5.3061    2.5176 H   0  0  0  0  0
   12.3838   -3.7251    2.5948 H   0  0  0  0  0
   11.1917   -5.0349    2.7901 H   0  0  0  0  0
   10.0744   -3.9684    0.9343 H   0  0  0  0  0
   10.1093   -5.7581    0.8572 H   0  0  0  0  0
   10.4919   -5.7741   -1.4710 H   0  0  0  0  0
   11.3515   -4.2046   -1.4127 H   0  0  0  0  0
    8.5662   -4.3699   -3.3032 H   0  0  0  0  0
   10.2560   -3.8181   -3.2159 H   0  0  0  0  0
    9.3682   -1.6579   -2.1276 H   0  0  0  0  0
    7.7360   -2.1732   -2.6564 H   0  0  0  0  0
    9.8812    0.1039   -3.8225 H   0  0  0  0  0
    8.1006   -0.0145   -3.6939 H   0  0  0  0  0
    7.8520   -0.2738   -6.1000 H   0  0  0  0  0
    9.6232   -0.3979   -6.3261 H   0  0  0  0  0
    8.7922    3.1180   -7.0739 H   0  0  0  0  0
    7.6312    1.7859   -7.4159 H   0  0  0  0  0
    9.3816    1.6018   -7.8448 H   0  0  0  0  0
  1  2  1  0  0  0
  1 15  1  0  0  0
  2  3  1  0  0  0
  2 16  1  0  0  0
  2 17  1  0  0  0
  3  4  1  0  0  0
  3 18  1  0  0  0
  3 19  1  0  0  0
  4  5  1  0  0  0
  5  6  1  0  0  0
  5 20  1  0  0  0
  5 21  1  0  0  0
  6  7  1  0  0  0
  6 22  1  0  0  0
  6 23  1  0  0  0
  7  8  1  0  0  0
  8  9  1  0  0  0
  8 24  1  0  0  0
  8 25  1  0  0  0
  9 10  1  0  0  0
  9 26  1  0  0  0
  9 27  1  0  0  0
 10 11  1  0  0  0
 11 12  1  0  0  0
 11 28  1  0  0  0
 11 29  1  0  0  0
 12 13  1  0  0  0
 12 30  1  0  0  0
 12 31  1  0  0  0
 13 14  1  0  0  0
 14 32  1  0  0  0
 14 33  1  0  0  0
 14 34  1  0  0  0
M  END
$$$$
