@<TRIPOS>MOLECULE
DMS_1_A_402
 10 9 0 0 0
SMALL
NO_CHARGES

@<TRIPOS>ATOM
      1 S           2.3490  -18.9060    8.1000 S.o    402  DMS402      0.0000
      2 O           2.0230  -20.4000    8.0710 O.2    402  DMS402      0.0000
      3 C1          1.1360  -18.1030    9.3980 C.3    402  DMS402      0.0000
      4 C2          3.9930  -18.7640    9.1340 C.3    402  DMS402      0.0000
      5 H           1.4422  -17.0508    9.5698 H      402  DMS402      0.0000
      6 H           1.1880  -18.6772   10.3457 H      402  DMS402      0.0000
      7 H           0.1056  -18.1365    8.9885 H      402  DMS402      0.0000
      8 H           4.2071  -17.6915    9.3195 H      402  DMS402      0.0000
      9 H           4.8194  -19.2203    8.5515 H      402  DMS402      0.0000
     10 H           3.8637  -19.3008   10.0961 H      402  DMS402      0.0000
@<TRIPOS>BOND
     1     1     2    2
     2     1     3    1
     3     1     4    1
     4     3     5    1
     5     3     6    1
     6     3     7    1
     7     4     8    1
     8     4     9    1
     9     4    10    1

