@<TRIPOS>MOLECULE
DMS_1_A_404
 10 9 0 0 0
SMALL
NO_CHARGES

@<TRIPOS>ATOM
      1 S           6.0670    0.2500   18.1590 S.o    404  DMS404      0.0000
      2 O           7.2470    1.0190   17.5700 O.2    404  DMS404      0.0000
      3 C1          6.6930   -0.5850   19.8070 C.3    404  DMS404      0.0000
      4 C2          4.8850    1.5670   18.9780 C.3    404  DMS404      0.0000
      5 H           5.8262   -1.0387   20.3297 H      404  DMS404      0.0000
      6 H           7.1659    0.1876   20.4473 H      404  DMS404      0.0000
      7 H           7.4330   -1.3697   19.5478 H      404  DMS404      0.0000
      8 H           4.0851    1.0342   19.5319 H      404  DMS404      0.0000
      9 H           4.4400    2.1912   18.1762 H      404  DMS404      0.0000
     10 H           5.4748    2.2014   19.6711 H      404  DMS404      0.0000
@<TRIPOS>BOND
     1     1     2    2
     2     1     3    1
     3     1     4    1
     4     3     5    1
     5     3     6    1
     6     3     7    1
     7     4     8    1
     8     4     9    1
     9     4    10    1

