DMS_1_A_403
  -ISIS-            3D

 10  9  0  0  0  0  0  0  0  0  1 V2000
    6.2820   -0.9440   -6.3860 S   0  0  0  0  0
    7.3260   -0.8820   -7.5010 O   0  0  0  0  0
    5.6460   -2.7840   -6.2960 C   0  0  0  0  0
    7.2690   -0.9300   -4.7070 C   0  0  0  0  0
    4.9929   -2.8936   -5.4061 H   0  0  0  0  0
    6.5181   -3.4652   -6.2182 H   0  0  0  0  0
    5.0709   -3.0059   -7.2183 H   0  0  0  0  0
    6.5593   -1.1085   -3.8733 H   0  0  0  0  0
    7.7523    0.0613   -4.5878 H   0  0  0  0  0
    8.0390   -1.7281   -4.7327 H   0  0  0  0  0
  1  2  2  0  0  0
  1  3  1  0  0  0
  1  4  1  0  0  0
  3  5  1  0  0  0
  3  6  1  0  0  0
  3  7  1  0  0  0
  4  8  1  0  0  0
  4  9  1  0  0  0
  4 10  1  0  0  0
M  END
$$$$
