@<TRIPOS>MOLECULE
DMS_2_A_403
 10 9 0 0 0
SMALL
NO_CHARGES

@<TRIPOS>ATOM
      1 S          -6.2820   -0.9440    6.3860 S.o    403  DMS403      0.0000
      2 O          -7.3260   -0.8820    7.5010 O.2    403  DMS403      0.0000
      3 C1         -5.6460   -2.7840    6.2960 C.3    403  DMS403      0.0000
      4 C2         -7.2690   -0.9300    4.7070 C.3    403  DMS403      0.0000
      5 H          -4.9929   -2.8936    5.4061 H      403  DMS403      0.0000
      6 H          -6.5181   -3.4652    6.2182 H      403  DMS403      0.0000
      7 H          -5.0709   -3.0059    7.2183 H      403  DMS403      0.0000
      8 H          -6.5593   -1.1085    3.8733 H      403  DMS403      0.0000
      9 H          -7.7523    0.0613    4.5878 H      403  DMS403      0.0000
     10 H          -8.0390   -1.7281    4.7327 H      403  DMS403      0.0000
@<TRIPOS>BOND
     1     1     2    2
     2     1     3    1
     3     1     4    1
     4     3     5    1
     5     3     6    1
     6     3     7    1
     7     4     8    1
     8     4     9    1
     9     4    10    1

