@<TRIPOS>MOLECULE
NHE_1_A_404
 30 30 0 0 0
SMALL
NO_CHARGES

@<TRIPOS>ATOM
      1 C3'         7.3080  -23.6170    9.1560 C.3    404  NHE404      0.0000
      2 C2'         7.9360  -22.4570    8.3800 C.3    404  NHE404      0.0000
      3 C1'         8.9680  -22.9160    7.3380 C.3    404  NHE404      0.0000
      4 C6'         8.6820  -24.3220    6.7990 C.3    404  NHE404      0.0000
      5 N           9.0960  -21.9870    6.2260 N.pl3  404  NHE404      0.0000
      6 C1          8.6870  -20.5930    6.2490 C.3    404  NHE404      0.0000
      7 C2          8.5980  -20.1010    4.8100 C.3    404  NHE404      0.0000
      8 S           8.0250  -18.5380    4.7010 S.3    404  NHE404      0.0000
      9 O1          6.9250  -18.1430    5.5520 O.co2  404  NHE404      0.0000
     10 O2          8.3800  -17.7110    3.5650 O.co2  404  NHE404      0.0000
     11 O3          6.8940  -19.1670    3.7020 O.co2  404  NHE404      0.0000
     12 C5'         8.6520  -25.3880    7.8950 C.3    404  NHE404      0.0000
     13 C4'         8.2340  -24.8320    9.2590 C.3    404  NHE404      0.0000
     14 H           6.3660  -23.9337    8.6494 H      404  NHE404      0.0000
     15 H           7.0116  -23.2737   10.1743 H      404  NHE404      0.0000
     16 H           8.4131  -21.7378    9.0851 H      404  NHE404      0.0000
     17 H           7.0942  -21.9183    7.8936 H      404  NHE404      0.0000
     18 H           9.9571  -22.9553    7.8586 H      404  NHE404      0.0000
     19 H           9.4374  -24.6042    6.0299 H      404  NHE404      0.0000
     20 H           7.6978  -24.3068    6.2754 H      404  NHE404      0.0000
     21 H           9.9981  -22.0970    5.7669 H      404  NHE404      0.0000
     22 H           9.4093  -19.9911    6.8438 H      404  NHE404      0.0000
     23 H           7.6904  -20.4855    6.7200 H      404  NHE404      0.0000
     24 H           8.0012  -20.8140    4.2043 H      404  NHE404      0.0000
     25 H           9.6097  -20.0817    4.3509 H      404  NHE404      0.0000
     26 H           6.0186  -18.3024    3.2657 H      404  NHE404      0.0000
     27 H           9.6572  -25.8614    7.9891 H      404  NHE404      0.0000
     28 H           7.9541  -26.2023    7.5898 H      404  NHE404      0.0000
     29 H           7.7454  -25.6346    9.8587 H      404  NHE404      0.0000
     30 H           9.1456  -24.5339    9.8284 H      404  NHE404      0.0000
@<TRIPOS>BOND
     1     1     2    1
     2     1    13    1
     3     1    14    1
     4     1    15    1
     5     2     3    1
     6     2    16    1
     7     2    17    1
     8     3     4    1
     9     3     5    1
    10     3    18    1
    11     4    12    1
    12     4    19    1
    13     4    20    1
    14     5     6    1
    15     5    21    1
    16     6     7    1
    17     6    22    1
    18     6    23    1
    19     7     8    1
    20     7    24    1
    21     7    25    1
    22     8     9    2
    23     8    10    2
    24     8    11    1
    25    11    26    1
    26    12    13    1
    27    12    27    1
    28    12    28    1
    29    13    29    1
    30    13    30    1

