@<TRIPOS>MOLECULE
EVE_1_A_201
 20 21 0 0 0
SMALL
NO_CHARGES

@<TRIPOS>ATOM
      1 N         -52.5530  -31.2160    7.8080 N.am   201  EVE201      0.0000
      2 S         -52.6120  -29.5910    7.2840 S.o    201  EVE201      0.0000
      3 N1        -50.0560  -29.3570    6.5280 N.ar   201  EVE201      0.0000
      4 O1        -52.3860  -28.6970    8.2780 O.2    201  EVE201      0.0000
      5 C2        -51.2690  -29.3590    6.1390 C.ar   201  EVE201      0.0000
      6 N2        -51.3350  -29.1240    4.8870 N.ar   201  EVE201      0.0000
      7 O2        -53.8690  -29.4530    6.6830 O.2    201  EVE201      0.0000
      8 C4        -47.8610  -29.0690    5.3730 C.ar   201  EVE201      0.0000
      9 C5        -47.3830  -28.8490    4.1230 C.ar   201  EVE201      0.0000
     10 C6        -48.2200  -28.7060    3.0670 C.ar   201  EVE201      0.0000
     11 C7        -49.5980  -28.8270    3.2310 C.ar   201  EVE201      0.0000
     12 C8        -50.1130  -29.0100    4.4650 C.ar   201  EVE201      0.0000
     13 C9        -49.2690  -29.1500    5.5340 C.ar   201  EVE201      0.0000
     14 H         -49.7369  -29.4908    7.4954 H      201  EVE201      0.0000
     15 H         -47.1895  -29.1841    6.2389 H      201  EVE201      0.0000
     16 H         -46.2928  -28.7781    3.9653 H      201  EVE201      0.0000
     17 H         -47.8088  -28.5130    2.0612 H      201  EVE201      0.0000
     18 H         -50.2679  -28.7487    2.3587 H      201  EVE201      0.0000
     19 H         -53.4117  -31.7084    7.5654 H      201  EVE201      0.0000
     20 H         -52.3669  -31.2685    8.8088 H      201  EVE201      0.0000
@<TRIPOS>BOND
     1     1     2    1
     2     1    19    1
     3     1    20    1
     4     2     4    2
     5     2     5    1
     6     2     7    2
     7     3     5   ar
     8     3    13   ar
     9     3    14    1
    10     5     6   ar
    11     6    12   ar
    12     8     9   ar
    13     8    13   ar
    14     8    15    1
    15     9    10   ar
    16     9    16    1
    17    10    11   ar
    18    10    17    1
    19    11    12   ar
    20    11    18    1
    21    12    13   ar

