EDO_1_A_201
  -ISIS-            3D

 10  9  0  0  0  0  0  0  0  0  1 V2000
   34.7440   80.1730   21.5240 C   0  0  0  0  0
   33.3460   79.9540   21.3070 O   0  0  0  0  0
   35.0490   81.4990   22.1050 C   0  0  0  0  0
   36.1090   81.4820   23.0440 O   0  0  0  0  0
   35.3026   80.0167   20.5768 H   0  0  0  0  0
   35.0924   79.3749   22.2130 H   0  0  0  0  0
   33.0897   80.4157   20.5190 H   0  0  0  0  0
   34.1472   81.9111   22.6074 H   0  0  0  0  0
   35.2993   82.2200   21.2991 H   0  0  0  0  0
   35.7938   81.0909   23.8479 H   0  0  0  0  0
  1  2  1  0  0  0
  1  3  1  0  0  0
  1  5  1  0  0  0
  1  6  1  0  0  0
  2  7  1  0  0  0
  3  4  1  0  0  0
  3  8  1  0  0  0
  3  9  1  0  0  0
  4 10  1  0  0  0
M  END
$$$$
