AQO_1_A_201
  -ISIS-            3D

 19 20  0  0  0  0  0  0  0  0  1 V2000
  -46.5790  -29.0270    3.4900 C   0  0  0  0  0
  -46.0190  -29.0880    4.7480 C   0  0  0  0  0
  -46.8010  -29.1420    5.8750 C   0  0  0  0  0
  -48.1770  -29.1310    5.7650 C   0  0  0  0  0
  -49.0350  -29.2010    7.0040 N   0  0  0  0  0
  -50.4550  -29.2050    6.8720 C   0  0  0  0  0
  -51.2220  -29.2940    8.0660 N   0  0  0  0  0
  -51.0500  -29.1410    5.5800 N   0  0  0  0  0
  -50.2260  -29.0730    4.4080 C   0  0  0  0  0
  -50.6780  -29.0480    3.3150 O   0  0  0  0  0
  -48.7350  -29.0530    4.5160 C   0  0  0  0  0
  -47.9560  -29.0290    3.3880 C   0  0  0  0  0
  -45.9453  -28.9860    2.5885 H   0  0  0  0  0
  -44.9201  -29.0944    4.8500 H   0  0  0  0  0
  -46.3332  -29.1956    6.8720 H   0  0  0  0  0
  -50.6711  -29.3392    8.9314 H   0  0  0  0  0
  -52.2455  -29.3064    7.9786 H   0  0  0  0  0
  -48.4179  -29.0010    2.3873 H   0  0  0  0  0
  -52.0750  -29.1532    5.5416 H   0  0  0  0  0
  1  2  2  0  0  0
  1 12  1  0  0  0
  1 13  1  0  0  0
  2  3  1  0  0  0
  2 14  1  0  0  0
  3  4  2  0  0  0
  3 15  1  0  0  0
  4  5  1  0  0  0
  4 11  1  0  0  0
  5  6  1  0  0  0
  6  7  1  0  0  0
  6  8  1  0  0  0
  7 16  1  0  0  0
  7 17  1  0  0  0
  8  9  1  0  0  0
  8 19  1  0  0  0
  9 10  2  0  0  0
  9 11  1  0  0  0
 11 12  2  0  0  0
 12 18  1  0  0  0
M  END
$$$$
