@<TRIPOS>MOLECULE
AQO_1_A_201
 19 20 0 0 0
SMALL
NO_CHARGES

@<TRIPOS>ATOM
      1 C1        -46.5790  -29.0270    3.4900 C.ar   201  AQO201      0.0000
      2 C2        -46.0190  -29.0880    4.7480 C.ar   201  AQO201      0.0000
      3 C3        -46.8010  -29.1420    5.8750 C.ar   201  AQO201      0.0000
      4 C4        -48.1770  -29.1310    5.7650 C.ar   201  AQO201      0.0000
      5 N5        -49.0350  -29.2010    7.0040 N.ar   201  AQO201      0.0000
      6 C6        -50.4550  -29.2050    6.8720 C.ar   201  AQO201      0.0000
      7 N7        -51.2220  -29.2940    8.0660 N.3    201  AQO201      0.0000
      8 N8        -51.0500  -29.1410    5.5800 N.ar   201  AQO201      0.0000
      9 C9        -50.2260  -29.0730    4.4080 C.ar   201  AQO201      0.0000
     10 O10       -50.6780  -29.0480    3.3150 O.2    201  AQO201      0.0000
     11 C11       -48.7350  -29.0530    4.5160 C.ar   201  AQO201      0.0000
     12 C12       -47.9560  -29.0290    3.3880 C.ar   201  AQO201      0.0000
     13 H         -45.9453  -28.9860    2.5885 H      201  AQO201      0.0000
     14 H         -44.9201  -29.0944    4.8500 H      201  AQO201      0.0000
     15 H         -46.3332  -29.1956    6.8720 H      201  AQO201      0.0000
     16 H         -50.6711  -29.3392    8.9314 H      201  AQO201      0.0000
     17 H         -52.2455  -29.3064    7.9786 H      201  AQO201      0.0000
     18 H         -48.4179  -29.0010    2.3873 H      201  AQO201      0.0000
     19 H         -52.0750  -29.1532    5.5416 H      201  AQO201      0.0000
@<TRIPOS>BOND
     1     1     2   ar
     2     1    12   ar
     3     1    13    1
     4     2     3   ar
     5     2    14    1
     6     3     4   ar
     7     3    15    1
     8     4     5   ar
     9     4    11   ar
    10     5     6   ar
    11     6     7    1
    12     6     8   ar
    13     7    16    1
    14     7    17    1
    15     8     9   ar
    16     8    19    1
    17     9    10    2
    18     9    11   ar
    19    11    12   ar
    20    12    18    1

