@<TRIPOS>MOLECULE
CMP_1_A_401
 34 37 0 0 0
SMALL
NO_CHARGES

@<TRIPOS>ATOM
      1 P           4.4100  -10.0160   22.8000 P.3    401  CMP401      0.0000
      2 O1P         3.6320   -9.7560   21.5870 O.co2  401  CMP401      0.0000
      3 O2P         3.8990  -11.0110   23.7720 O.co2  401  CMP401      0.0000
      4 O5'         4.6680   -8.6900   23.6650 O.3    401  CMP401      0.0000
      5 C5'         5.7150   -8.6250   24.6310 C.3    401  CMP401      0.0000
      6 C4'         6.9460   -9.0510   23.9120 C.3    401  CMP401      0.0000
      7 O4'         8.1050   -9.1350   24.7210 O.3    401  CMP401      0.0000
      8 C3'         6.8490  -10.4390   23.3590 C.3    401  CMP401      0.0000
      9 O3'         5.8880  -10.4660   22.3300 O.3    401  CMP401      0.0000
     10 C2'         8.3060  -10.7370   22.9600 C.3    401  CMP401      0.0000
     11 O2'         8.5850  -10.2130   21.6970 O.3    401  CMP401      0.0000
     12 C1'         9.0700   -9.8940   23.9960 C.3    401  CMP401      0.0000
     13 N9          9.8700  -10.6770   24.9550 N.ar   401  CMP401      0.0000
     14 C8         10.9610  -10.1880   25.6320 C.ar   401  CMP401      0.0000
     15 N7         11.4920  -11.0570   26.4480 N.ar   401  CMP401      0.0000
     16 C5         10.6880  -12.1810   26.3260 C.ar   401  CMP401      0.0000
     17 C6         10.7260  -13.4380   26.9560 C.ar   401  CMP401      0.0000
     18 N6         11.6540  -13.7870   27.8450 N.pl3  401  CMP401      0.0000
     19 N1          9.7730  -14.3380   26.6150 N.ar   401  CMP401      0.0000
     20 C2          8.8440  -13.9810   25.7200 C.ar   401  CMP401      0.0000
     21 N3          8.7060  -12.8270   25.0730 N.ar   401  CMP401      0.0000
     22 C4          9.6670  -11.9550   25.4240 C.ar   401  CMP401      0.0000
     23 H           5.4853   -9.2812   25.4956 H      401  CMP401      0.0000
     24 H           5.8051   -7.5864   25.0089 H      401  CMP401      0.0000
     25 H           7.1445   -8.3285   23.0879 H      401  CMP401      0.0000
     26 H           6.5661  -11.1541   24.1637 H      401  CMP401      0.0000
     27 H           8.5427  -11.8164   22.9797 H      401  CMP401      0.0000
     28 H           7.9201  -10.5325   21.0977 H      401  CMP401      0.0000
     29 H           9.7715   -9.2029   23.4801 H      401  CMP401      0.0000
     30 H          11.4185   -9.1923   25.5527 H      401  CMP401      0.0000
     31 H           8.0912  -14.7525   25.4841 H      401  CMP401      0.0000
     32 H          11.5701  -14.7413   28.2182 H      401  CMP401      0.0000
     33 H          12.3676  -13.0866   28.0830 H      401  CMP401      0.0000
     34 H           3.4549  -10.7188   21.0188 H      401  CMP401      0.0000
@<TRIPOS>BOND
     1     1     2    1
     2     1     3    2
     3     1     4    1
     4     1     9    1
     5     4     5    1
     6     5     6    1
     7     5    23    1
     8     5    24    1
     9     6     7    1
    10     6     8    1
    11     6    25    1
    12     7    12    1
    13     8     9    1
    14     8    10    1
    15     8    26    1
    16    10    11    1
    17    10    12    1
    18    10    27    1
    19    11    28    1
    20    12    13    1
    21    12    29    1
    22    13    14   ar
    23    13    22   ar
    24    14    15   ar
    25    14    30    1
    26    15    16   ar
    27    16    17   ar
    28    16    22   ar
    29    17    18    1
    30    17    19   ar
    31    18    32    1
    32    18    33    1
    33    19    20   ar
    34    20    21   ar
    35    20    31    1
    36    21    22   ar
    37     2    34    1

