CMP_1_A_401
  -ISIS-            3D

 34 37  0  0  0  0  0  0  0  0  1 V2000
    4.4100  -10.0160   22.8000 P   0  0  0  0  0
    3.6320   -9.7560   21.5870 O   0  0  0  0  0
    3.8990  -11.0110   23.7720 O   0  0  0  0  0
    4.6680   -8.6900   23.6650 O   0  0  0  0  0
    5.7150   -8.6250   24.6310 C   0  0  0  0  0
    6.9460   -9.0510   23.9120 C   0  0  0  0  0
    8.1050   -9.1350   24.7210 O   0  0  0  0  0
    6.8490  -10.4390   23.3590 C   0  0  0  0  0
    5.8880  -10.4660   22.3300 O   0  0  0  0  0
    8.3060  -10.7370   22.9600 C   0  0  0  0  0
    8.5850  -10.2130   21.6970 O   0  0  0  0  0
    9.0700   -9.8940   23.9960 C   0  0  0  0  0
    9.8700  -10.6770   24.9550 N   0  0  0  0  0
   10.9610  -10.1880   25.6320 C   0  0  0  0  0
   11.4920  -11.0570   26.4480 N   0  0  0  0  0
   10.6880  -12.1810   26.3260 C   0  0  0  0  0
   10.7260  -13.4380   26.9560 C   0  0  0  0  0
   11.6540  -13.7870   27.8450 N   0  0  0  0  0
    9.7730  -14.3380   26.6150 N   0  0  0  0  0
    8.8440  -13.9810   25.7200 C   0  0  0  0  0
    8.7060  -12.8270   25.0730 N   0  0  0  0  0
    9.6670  -11.9550   25.4240 C   0  0  0  0  0
    5.4853   -9.2812   25.4956 H   0  0  0  0  0
    5.8051   -7.5864   25.0089 H   0  0  0  0  0
    7.1445   -8.3285   23.0879 H   0  0  0  0  0
    6.5661  -11.1541   24.1637 H   0  0  0  0  0
    8.5427  -11.8164   22.9797 H   0  0  0  0  0
    7.9201  -10.5325   21.0977 H   0  0  0  0  0
    9.7715   -9.2029   23.4801 H   0  0  0  0  0
   11.4185   -9.1923   25.5527 H   0  0  0  0  0
    8.0912  -14.7525   25.4841 H   0  0  0  0  0
   11.5701  -14.7413   28.2182 H   0  0  0  0  0
   12.3676  -13.0866   28.0830 H   0  0  0  0  0
    3.4549  -10.7188   21.0188 H   0  0  0  0  0
  1  2  1  0  0  0
  1  3  2  0  0  0
  1  4  1  0  0  0
  1  9  1  0  0  0
  4  5  1  0  0  0
  5  6  1  0  0  0
  5 23  1  0  0  0
  5 24  1  0  0  0
  6  7  1  0  0  0
  6  8  1  0  0  0
  6 25  1  0  0  0
  7 12  1  0  0  0
  8  9  1  0  0  0
  8 10  1  0  0  0
  8 26  1  0  0  0
 10 11  1  0  0  0
 10 12  1  0  0  0
 10 27  1  0  0  0
 11 28  1  0  0  0
 12 13  1  0  0  0
 12 29  1  0  0  0
 13 14  1  0  0  0
 13 22  1  0  0  0
 14 15  2  0  0  0
 14 30  1  0  0  0
 15 16  1  0  0  0
 16 17  2  0  0  0
 16 22  1  0  0  0
 17 18  1  0  0  0
 17 19  1  0  0  0
 18 32  1  0  0  0
 18 33  1  0  0  0
 19 20  2  0  0  0
 20 21  1  0  0  0
 20 31  1  0  0  0
 21 22  2  0  0  0
  2 34  1  0  0  0
M  END
$$$$
