@<TRIPOS>MOLECULE
DMS_2_A_401
 10 9 0 0 0
SMALL
NO_CHARGES

@<TRIPOS>ATOM
      1 S          -7.1450  -28.1710  -21.3460 S.o    401  DMS401      0.0000
      2 O          -7.9460  -27.2840  -22.2260 O.2    401  DMS401      0.0000
      3 C1         -5.9660  -28.9730  -22.4100 C.3    401  DMS401      0.0000
      4 C2         -6.0070  -27.1220  -20.4930 C.3    401  DMS401      0.0000
      5 H          -5.2356  -29.5432  -21.8003 H      401  DMS401      0.0000
      6 H          -5.4281  -28.2236  -23.0265 H      401  DMS401      0.0000
      7 H          -6.4983  -29.6774  -23.0815 H      401  DMS401      0.0000
      8 H          -5.2765  -27.7373  -19.9291 H      401  DMS401      0.0000
      9 H          -6.5628  -26.4829  -19.7768 H      401  DMS401      0.0000
     10 H          -5.4656  -26.4715  -21.2104 H      401  DMS401      0.0000
@<TRIPOS>BOND
     1     1     2    2
     2     1     3    1
     3     1     4    1
     4     3     5    1
     5     3     6    1
     6     3     7    1
     7     4     8    1
     8     4     9    1
     9     4    10    1

