DMS_1_A_402
  -ISIS-            3D

 10  9  0  0  0  0  0  0  0  0  1 V2000
    6.0440   -0.9640   -6.3750 S   0  0  0  0  0
    6.9070   -0.7710   -7.5680 O   0  0  0  0  0
    7.1170   -0.8900   -4.9550 C   0  0  0  0  0
    5.6730   -2.6870   -6.2940 C   0  0  0  0  0
    6.5510   -1.1627   -4.0408 H   0  0  0  0  0
    7.5028    0.1438   -4.8418 H   0  0  0  0  0
    7.9739   -1.5832   -5.0810 H   0  0  0  0  0
    5.1437   -2.9153   -5.3463 H   0  0  0  0  0
    6.6037   -3.2881   -6.3510 H   0  0  0  0  0
    5.0154   -2.9611   -7.1442 H   0  0  0  0  0
  1  2  2  0  0  0
  1  3  1  0  0  0
  1  4  1  0  0  0
  3  5  1  0  0  0
  3  6  1  0  0  0
  3  7  1  0  0  0
  4  8  1  0  0  0
  4  9  1  0  0  0
  4 10  1  0  0  0
M  END
$$$$
