EDO_1_A_302
  -ISIS-            3D

 10  9  0  0  0  0  0  0  0  0  1 V2000
   -4.7140   13.9390    0.9790 C   0  0  0  0  0
   -4.4950   15.2520    1.4620 O   0  0  0  0  0
   -4.0700   13.7080   -0.3290 C   0  0  0  0  0
   -3.8620   14.8870   -1.0770 O   0  0  0  0  0
   -5.8112   13.7923    0.8902 H   0  0  0  0  0
   -4.3619   13.2057    1.7340 H   0  0  0  0  0
   -3.8430   15.6621    0.9055 H   0  0  0  0  0
   -4.6456   12.9743   -0.9321 H   0  0  0  0  0
   -3.0732   13.2453   -0.1653 H   0  0  0  0  0
   -4.7036   15.1924   -1.3908 H   0  0  0  0  0
  1  2  1  0  0  0
  1  3  1  0  0  0
  1  5  1  0  0  0
  1  6  1  0  0  0
  2  7  1  0  0  0
  3  4  1  0  0  0
  3  8  1  0  0  0
  3  9  1  0  0  0
  4 10  1  0  0  0
M  END
$$$$
