EDO_1_A_301
  -ISIS-            3D

 10  9  0  0  0  0  0  0  0  0  1 V2000
  -10.8500   25.7790   11.8680 C   0  0  0  0  0
  -10.4250   26.9390   12.5540 O   0  0  0  0  0
  -12.1640   25.2590   12.3010 C   0  0  0  0  0
  -12.5770   24.1100   11.5650 O   0  0  0  0  0
  -10.0744   24.9901   11.9727 H   0  0  0  0  0
  -10.8910   26.0222   10.7852 H   0  0  0  0  0
  -10.0992   26.6844   13.4072 H   0  0  0  0  0
  -12.9339   26.0527   12.1897 H   0  0  0  0  0
  -12.1296   24.9985   13.3806 H   0  0  0  0  0
  -13.4486   23.8679   11.8497 H   0  0  0  0  0
  1  2  1  0  0  0
  1  3  1  0  0  0
  1  5  1  0  0  0
  1  6  1  0  0  0
  2  7  1  0  0  0
  3  4  1  0  0  0
  3  8  1  0  0  0
  3  9  1  0  0  0
  4 10  1  0  0  0
M  END
$$$$
