EDO_1_A_401
  -ISIS-            3D

 10  9  0  0  0  0  0  0  0  0  1 V2000
    9.5760    4.3260   26.3410 C   0  0  0  0  0
    8.2660    3.7470   26.3460 O   0  0  0  0  0
    9.4740    5.8450   26.4400 C   0  0  0  0  0
    8.8420    6.3700   25.2650 O   0  0  0  0  0
   10.1153    4.0243   25.4187 H   0  0  0  0  0
   10.1469    3.9210   27.2020 H   0  0  0  0  0
    7.7743    4.1945   25.6673 H   0  0  0  0  0
   10.4885    6.2863   26.5386 H   0  0  0  0  0
    8.8948    6.1378   27.3411 H   0  0  0  0  0
    8.8004    7.3134   25.3476 H   0  0  0  0  0
  1  2  1  0  0  0
  1  3  1  0  0  0
  1  5  1  0  0  0
  1  6  1  0  0  0
  2  7  1  0  0  0
  3  4  1  0  0  0
  3  8  1  0  0  0
  3  9  1  0  0  0
  4 10  1  0  0  0
M  END
$$$$
