@<TRIPOS>MOLECULE
FMT_1_A_405
 3 2 0 0 0
SMALL
NO_CHARGES

@<TRIPOS>ATOM
      1 C           6.9850   -0.1560   18.4880 C.2    405  FMT405      0.0000
      2 O1          6.5900   -0.9810   17.6700 O.2    405  FMT405      0.0000
      3 O2          8.0010    0.5180   18.3080 O.2    405  FMT405     -0.5000
@<TRIPOS>BOND
     1     1     2   ar
     2     1     3   ar

