@<TRIPOS>MOLECULE
EDO_1_A_9101
 10 9 0 0 0
SMALL
NO_CHARGES

@<TRIPOS>ATOM
      1 C1         -4.1600    0.8150   13.8970 C.3   9101  EDO9101      0.0000
      2 O1         -3.4810    2.0700   14.0000 O.3   9101  EDO9101      0.0000
      3 C2         -4.9250    0.5800   15.2280 C.3   9101  EDO9101      0.0000
      4 O2         -5.9320    1.5690   15.3680 O.3   9101  EDO9101      0.0000
      5 H          -3.4217    0.0046   13.7224 H     9101  EDO9101      0.0000
      6 H          -4.8483    0.8332   13.0277 H     9101  EDO9101      0.0000
      7 H          -2.9064    2.0486   14.7531 H     9101  EDO9101      0.0000
      8 H          -4.2410    0.6215   16.1002 H     9101  EDO9101      0.0000
      9 H          -5.3949   -0.4259   15.2271 H     9101  EDO9101      0.0000
     10 H          -6.4433    1.6064   14.5709 H     9101  EDO9101      0.0000
@<TRIPOS>BOND
     1     1     2    1
     2     1     3    1
     3     1     5    1
     4     1     6    1
     5     2     7    1
     6     3     4    1
     7     3     8    1
     8     3     9    1
     9     4    10    1

