I12_1_B_2145
  -ISIS-            3D

 92 93  0  0  0  0  0  0  0  0  1 V2000
   76.0410  -26.0900   36.1630 N   0  0  0  0  0
   75.5020  -25.0370   36.7000 C   0  0  0  0  0
   74.4990  -25.4720   37.6260 C   0  0  0  0  0
   74.4880  -26.8390   37.5850 C   0  0  0  0  0
   73.5980  -27.7400   38.3830 C   0  0  0  0  0
   75.4150  -27.2890   36.7030 O   0  0  0  0  0
   75.8180  -23.6100   36.4410 C   0  0  0  0  0
   76.8960  -23.2280   36.0160 O   0  0  0  0  0
   74.7690  -22.7500   36.7320 N   0  0  0  0  0
   75.0340  -21.2860   36.5620 C   0  0  0  0  0
   75.9160  -20.7650   37.7000 C   0  0  0  0  0
   75.8500  -21.2710   38.8130 O   0  0  0  0  0
   73.7120  -20.5080   36.5210 C   0  0  0  0  0
   76.7330  -19.7500   37.4170 N   0  0  0  0  0
   77.6350  -19.1720   38.4200 C   0  0  0  0  0
   79.1260  -19.4140   38.0490 C   0  0  0  0  0
   80.0310  -18.9210   39.1710 C   0  0  0  0  0
   79.3660  -20.8800   37.7400 C   0  0  0  0  0
   77.4250  -17.6730   38.4880 C   0  0  0  0  0
   77.5600  -16.9730   37.4800 O   0  0  0  0  0
   77.0960  -17.1710   39.6690 N   0  0  0  0  0
   76.9010  -15.7340   39.8110 C   0  0  0  0  0
   76.1630  -15.4250   41.1210 C   0  0  0  0  0
   74.7350  -15.9760   41.2650 C   0  0  0  0  0
   73.8030  -15.3190   40.2550 C   0  0  0  0  0
   74.2370  -15.7430   42.6880 C   0  0  0  0  0
   78.2730  -15.0720   39.8070 C   0  0  0  0  0
   79.1750  -15.6460   40.4690 O   0  0  0  0  0
   78.5270  -14.1550   39.1160 N   0  0  0  0  0
   79.8410  -13.5060   38.8260 C   0  0  0  0  0
   80.0690  -12.0270   39.2680 C   0  0  0  0  0
   79.9750  -11.8550   40.8010 C   0  0  0  0  0
   81.1940  -11.1850   41.4250 C   0  0  0  0  0
   81.9680  -10.4710   40.8330 O   0  0  0  0  0
   81.3230  -11.5520   42.7300 O   0  0  0  0  0
   82.5710  -11.2810   43.3440 C   0  0  0  0  0
   82.4550  -11.5770   44.8360 C   0  0  0  0  0
   80.4760  -13.4800   37.4030 C   0  0  0  0  0
   80.9710  -14.8460   36.9380 C   0  0  0  0  0
   82.2190  -15.5010   37.5830 C   0  0  0  0  0
   82.8490  -16.4040   36.5040 C   0  0  0  0  0
   82.3990  -15.7430   35.2850 N   0  0  0  0  0
   81.3720  -14.8810   35.4720 C   0  0  0  0  0
   80.8710  -14.2660   34.5630 O   0  0  0  0  0
   73.8576  -24.8529   38.2624 H   0  0  0  0  0
   73.7960  -28.8106   38.1557 H   0  0  0  0  0
   72.5262  -27.5408   38.1618 H   0  0  0  0  0
   73.7550  -27.5922   39.4743 H   0  0  0  0  0
   73.8582  -23.0845   37.0678 H   0  0  0  0  0
   75.5572  -21.1128   35.5907 H   0  0  0  0  0
   73.8849  -19.4185   36.3719 H   0  0  0  0  0
   73.1361  -20.6269   37.4661 H   0  0  0  0  0
   73.0624  -20.8561   35.6867 H   0  0  0  0  0
   76.7482  -19.3349   36.4752 H   0  0  0  0  0
   77.4491  -19.6201   39.4235 H   0  0  0  0  0
   79.3682  -18.8333   37.1248 H   0  0  0  0  0
   81.1029  -19.1136   38.9411 H   0  0  0  0  0
   79.8095  -19.4236   40.1388 H   0  0  0  0  0
   79.9387  -17.8262   39.3345 H   0  0  0  0  0
   80.4375  -21.0780   37.5131 H   0  0  0  0  0
   78.7886  -21.2236   36.8537 H   0  0  0  0  0
   79.0869  -21.5360   38.5947 H   0  0  0  0  0
   77.0076  -17.7826   40.4905 H   0  0  0  0  0
   76.2992  -15.3355   38.9611 H   0  0  0  0  0
   76.1328  -14.3180   41.2544 H   0  0  0  0  0
   76.7799  -15.8102   41.9668 H   0  0  0  0  0
   74.7469  -17.0767   41.0766 H   0  0  0  0  0
   72.7548  -15.6717   40.3806 H   0  0  0  0  0
   74.0880  -15.5523   39.2057 H   0  0  0  0  0
   73.7884  -14.2109   40.3572 H   0  0  0  0  0
   73.2089  -16.1443   42.8327 H   0  0  0  0  0
   74.2065  -14.6611   42.9476 H   0  0  0  0  0
   74.8857  -16.2452   43.4403 H   0  0  0  0  0
   77.8037  -13.6836   38.5585 H   0  0  0  0  0
   80.4857  -14.1498   39.4605 H   0  0  0  0  0
   79.3196  -11.3716   38.7667 H   0  0  0  0  0
   81.0692  -11.6666   38.9422 H   0  0  0  0  0
   79.8132  -12.8407   41.2896 H   0  0  0  0  0
   79.0738  -11.2486   41.0445 H   0  0  0  0  0
   82.8666  -10.2183   43.2107 H   0  0  0  0  0
   83.3717  -11.9112   42.9013 H   0  0  0  0  0
   83.4135  -11.3815   45.3645 H   0  0  0  0  0
   82.1862  -12.6397   45.0225 H   0  0  0  0  0
   81.6769  -10.9466   45.3192 H   0  0  0  0  0
   81.3413  -12.7834   37.3353 H   0  0  0  0  0
   79.7080  -13.0969   36.6915 H   0  0  0  0  0
   80.1225  -15.5673   37.0394 H   0  0  0  0  0
   81.9624  -16.0734   38.5024 H   0  0  0  0  0
   82.9430  -14.7046   37.8734 H   0  0  0  0  0
   82.4536  -17.4427   36.5740 H   0  0  0  0  0
   83.9576  -16.4365   36.5948 H   0  0  0  0  0
   82.8040  -15.9057   34.3543 H   0  0  0  0  0
  1  2  2  0  0  0
  1  6  1  0  0  0
  2  3  1  0  0  0
  2  7  1  0  0  0
  3  4  2  0  0  0
  3 45  1  0  0  0
  4  5  1  0  0  0
  4  6  1  0  0  0
  5 46  1  0  0  0
  5 47  1  0  0  0
  5 48  1  0  0  0
  7  8  2  0  0  0
  7  9  1  0  0  0
  9 10  1  0  0  0
  9 49  1  0  0  0
 10 11  1  0  0  0
 10 13  1  0  0  0
 10 50  1  0  0  0
 11 12  2  0  0  0
 11 14  1  0  0  0
 13 51  1  0  0  0
 13 52  1  0  0  0
 13 53  1  0  0  0
 14 15  1  0  0  0
 14 54  1  0  0  0
 15 16  1  0  0  0
 15 19  1  0  0  0
 15 55  1  0  0  0
 16 17  1  0  0  0
 16 18  1  0  0  0
 16 56  1  0  0  0
 17 57  1  0  0  0
 17 58  1  0  0  0
 17 59  1  0  0  0
 18 60  1  0  0  0
 18 61  1  0  0  0
 18 62  1  0  0  0
 19 20  2  0  0  0
 19 21  1  0  0  0
 21 22  1  0  0  0
 21 63  1  0  0  0
 22 23  1  0  0  0
 22 27  1  0  0  0
 22 64  1  0  0  0
 23 24  1  0  0  0
 23 65  1  0  0  0
 23 66  1  0  0  0
 24 25  1  0  0  0
 24 26  1  0  0  0
 24 67  1  0  0  0
 25 68  1  0  0  0
 25 69  1  0  0  0
 25 70  1  0  0  0
 26 71  1  0  0  0
 26 72  1  0  0  0
 26 73  1  0  0  0
 27 28  2  0  0  0
 27 29  1  0  0  0
 29 30  1  0  0  0
 29 74  1  0  0  0
 30 31  1  0  0  0
 30 38  1  0  0  0
 30 75  1  0  0  0
 31 32  1  0  0  0
 31 76  1  0  0  0
 31 77  1  0  0  0
 32 33  1  0  0  0
 32 78  1  0  0  0
 32 79  1  0  0  0
 33 34  2  0  0  0
 33 35  1  0  0  0
 35 36  1  0  0  0
 36 37  1  0  0  0
 36 80  1  0  0  0
 36 81  1  0  0  0
 37 82  1  0  0  0
 37 83  1  0  0  0
 37 84  1  0  0  0
 38 39  1  0  0  0
 38 85  1  0  0  0
 38 86  1  0  0  0
 39 40  1  0  0  0
 39 43  1  0  0  0
 39 87  1  0  0  0
 40 41  1  0  0  0
 40 88  1  0  0  0
 40 89  1  0  0  0
 41 42  1  0  0  0
 41 90  1  0  0  0
 41 91  1  0  0  0
 42 43  1  0  0  0
 42 92  1  0  0  0
 43 44  2  0  0  0
M  END
$$$$
