@<TRIPOS>MOLECULE
I12_1_B_2145
 92 93 0 0 0
SMALL
NO_CHARGES

@<TRIPOS>ATOM
      1 N1         76.0410  -26.0900   36.1630 N.ar  2145  I122145      0.0000
      2 C1         75.5020  -25.0370   36.7000 C.ar  2145  I122145      0.0000
      3 C2         74.4990  -25.4720   37.6260 C.ar  2145  I122145      0.0000
      4 C3         74.4880  -26.8390   37.5850 C.ar  2145  I122145      0.0000
      5 C4         73.5980  -27.7400   38.3830 C.3   2145  I122145      0.0000
      6 O1         75.4150  -27.2890   36.7030 O.3   2145  I122145      0.0000
      7 C5         75.8180  -23.6100   36.4410 C.2   2145  I122145      0.0000
      8 O2         76.8960  -23.2280   36.0160 O.2   2145  I122145      0.0000
      9 N2         74.7690  -22.7500   36.7320 N.am  2145  I122145      0.0000
     10 C6         75.0340  -21.2860   36.5620 C.3   2145  I122145      0.0000
     11 C7         75.9160  -20.7650   37.7000 C.2   2145  I122145      0.0000
     12 O3         75.8500  -21.2710   38.8130 O.2   2145  I122145      0.0000
     13 C8         73.7120  -20.5080   36.5210 C.3   2145  I122145      0.0000
     14 N3         76.7330  -19.7500   37.4170 N.am  2145  I122145      0.0000
     15 C9         77.6350  -19.1720   38.4200 C.3   2145  I122145      0.0000
     16 C10        79.1260  -19.4140   38.0490 C.3   2145  I122145      0.0000
     17 C11        80.0310  -18.9210   39.1710 C.3   2145  I122145      0.0000
     18 C12        79.3660  -20.8800   37.7400 C.3   2145  I122145      0.0000
     19 C13        77.4250  -17.6730   38.4880 C.2   2145  I122145      0.0000
     20 O4         77.5600  -16.9730   37.4800 O.2   2145  I122145      0.0000
     21 N4         77.0960  -17.1710   39.6690 N.am  2145  I122145      0.0000
     22 C14        76.9010  -15.7340   39.8110 C.3   2145  I122145      0.0000
     23 C15        76.1630  -15.4250   41.1210 C.3   2145  I122145      0.0000
     24 C16        74.7350  -15.9760   41.2650 C.3   2145  I122145      0.0000
     25 C17        73.8030  -15.3190   40.2550 C.3   2145  I122145      0.0000
     26 C18        74.2370  -15.7430   42.6880 C.3   2145  I122145      0.0000
     27 C19        78.2730  -15.0720   39.8070 C.2   2145  I122145      0.0000
     28 O5         79.1750  -15.6460   40.4690 O.2   2145  I122145      0.0000
     29 N5         78.5270  -14.1550   39.1160 N.am  2145  I122145      0.0000
     30 C20        79.8410  -13.5060   38.8260 C.2   2145  I122145      0.0000
     31 C21        80.0690  -12.0270   39.2680 C.3   2145  I122145      0.0000
     32 C22        79.9750  -11.8550   40.8010 C.3   2145  I122145      0.0000
     33 C23        81.1940  -11.1850   41.4250 C.2   2145  I122145      0.0000
     34 O6         81.9680  -10.4710   40.8330 O.2   2145  I122145      0.0000
     35 O7         81.3230  -11.5520   42.7300 O.3   2145  I122145      0.0000
     36 C24        82.5710  -11.2810   43.3440 C.3   2145  I122145      0.0000
     37 C25        82.4550  -11.5770   44.8360 C.3   2145  I122145      0.0000
     38 C26        80.4760  -13.4800   37.4030 C.3   2145  I122145      0.0000
     39 C27        80.9710  -14.8460   36.9380 C.3   2145  I122145      0.0000
     40 C28        82.2190  -15.5010   37.5830 C.3   2145  I122145      0.0000
     41 C29        82.8490  -16.4040   36.5040 C.3   2145  I122145      0.0000
     42 N6         82.3990  -15.7430   35.2850 N.am  2145  I122145      0.0000
     43 C30        81.3720  -14.8810   35.4720 C.2   2145  I122145      0.0000
     44 O8         80.8710  -14.2660   34.5630 O.2   2145  I122145      0.0000
     45 H          73.8576  -24.8529   38.2624 H     2145  I122145      0.0000
     46 H          73.7960  -28.8106   38.1557 H     2145  I122145      0.0000
     47 H          72.5262  -27.5408   38.1618 H     2145  I122145      0.0000
     48 H          73.7550  -27.5922   39.4743 H     2145  I122145      0.0000
     49 H          73.8582  -23.0845   37.0678 H     2145  I122145      0.0000
     50 H          75.5572  -21.1128   35.5907 H     2145  I122145      0.0000
     51 H          73.8849  -19.4185   36.3719 H     2145  I122145      0.0000
     52 H          73.1361  -20.6269   37.4661 H     2145  I122145      0.0000
     53 H          73.0624  -20.8561   35.6867 H     2145  I122145      0.0000
     54 H          76.7482  -19.3349   36.4752 H     2145  I122145      0.0000
     55 H          77.4491  -19.6201   39.4235 H     2145  I122145      0.0000
     56 H          79.3682  -18.8333   37.1248 H     2145  I122145      0.0000
     57 H          81.1029  -19.1136   38.9411 H     2145  I122145      0.0000
     58 H          79.8095  -19.4236   40.1388 H     2145  I122145      0.0000
     59 H          79.9387  -17.8262   39.3345 H     2145  I122145      0.0000
     60 H          80.4375  -21.0780   37.5131 H     2145  I122145      0.0000
     61 H          78.7886  -21.2236   36.8537 H     2145  I122145      0.0000
     62 H          79.0869  -21.5360   38.5947 H     2145  I122145      0.0000
     63 H          77.0076  -17.7826   40.4905 H     2145  I122145      0.0000
     64 H          76.2992  -15.3355   38.9611 H     2145  I122145      0.0000
     65 H          76.1328  -14.3180   41.2544 H     2145  I122145      0.0000
     66 H          76.7799  -15.8102   41.9668 H     2145  I122145      0.0000
     67 H          74.7469  -17.0767   41.0766 H     2145  I122145      0.0000
     68 H          72.7548  -15.6717   40.3806 H     2145  I122145      0.0000
     69 H          74.0880  -15.5523   39.2057 H     2145  I122145      0.0000
     70 H          73.7884  -14.2109   40.3572 H     2145  I122145      0.0000
     71 H          73.2089  -16.1443   42.8327 H     2145  I122145      0.0000
     72 H          74.2065  -14.6611   42.9476 H     2145  I122145      0.0000
     73 H          74.8857  -16.2452   43.4403 H     2145  I122145      0.0000
     74 H          77.8037  -13.6836   38.5585 H     2145  I122145      0.0000
     75 H          80.4857  -14.1498   39.4605 H     2145  I122145      0.0000
     76 H          79.3196  -11.3716   38.7667 H     2145  I122145      0.0000
     77 H          81.0692  -11.6666   38.9422 H     2145  I122145      0.0000
     78 H          79.8132  -12.8407   41.2896 H     2145  I122145      0.0000
     79 H          79.0738  -11.2486   41.0445 H     2145  I122145      0.0000
     80 H          82.8666  -10.2183   43.2107 H     2145  I122145      0.0000
     81 H          83.3717  -11.9112   42.9013 H     2145  I122145      0.0000
     82 H          83.4135  -11.3815   45.3645 H     2145  I122145      0.0000
     83 H          82.1862  -12.6397   45.0225 H     2145  I122145      0.0000
     84 H          81.6769  -10.9466   45.3192 H     2145  I122145      0.0000
     85 H          81.3413  -12.7834   37.3353 H     2145  I122145      0.0000
     86 H          79.7080  -13.0969   36.6915 H     2145  I122145      0.0000
     87 H          80.1225  -15.5673   37.0394 H     2145  I122145      0.0000
     88 H          81.9624  -16.0734   38.5024 H     2145  I122145      0.0000
     89 H          82.9430  -14.7046   37.8734 H     2145  I122145      0.0000
     90 H          82.4536  -17.4427   36.5740 H     2145  I122145      0.0000
     91 H          83.9576  -16.4365   36.5948 H     2145  I122145      0.0000
     92 H          82.8040  -15.9057   34.3543 H     2145  I122145      0.0000
@<TRIPOS>BOND
     1     1     2   ar
     2     1     6   ar
     3     2     3   ar
     4     2     7    1
     5     3     4   ar
     6     3    45    1
     7     4     5    1
     8     4     6   ar
     9     5    46    1
    10     5    47    1
    11     5    48    1
    12     7     8    2
    13     7     9    1
    14     9    10    1
    15     9    49    1
    16    10    11    1
    17    10    13    1
    18    10    50    1
    19    11    12    2
    20    11    14    1
    21    13    51    1
    22    13    52    1
    23    13    53    1
    24    14    15    1
    25    14    54    1
    26    15    16    1
    27    15    19    1
    28    15    55    1
    29    16    17    1
    30    16    18    1
    31    16    56    1
    32    17    57    1
    33    17    58    1
    34    17    59    1
    35    18    60    1
    36    18    61    1
    37    18    62    1
    38    19    20    2
    39    19    21    1
    40    21    22    1
    41    21    63    1
    42    22    23    1
    43    22    27    1
    44    22    64    1
    45    23    24    1
    46    23    65    1
    47    23    66    1
    48    24    25    1
    49    24    26    1
    50    24    67    1
    51    25    68    1
    52    25    69    1
    53    25    70    1
    54    26    71    1
    55    26    72    1
    56    26    73    1
    57    27    28    2
    58    27    29    1
    59    29    30    1
    60    29    74    1
    61    30    31    1
    62    30    38    1
    63    30    75    1
    64    31    32    1
    65    31    76    1
    66    31    77    1
    67    32    33    1
    68    32    78    1
    69    32    79    1
    70    33    34    2
    71    33    35    1
    72    35    36    1
    73    36    37    1
    74    36    80    1
    75    36    81    1
    76    37    82    1
    77    37    83    1
    78    37    84    1
    79    38    39    1
    80    38    85    1
    81    38    86    1
    82    39    40    1
    83    39    43    1
    84    39    87    1
    85    40    41    1
    86    40    88    1
    87    40    89    1
    88    41    42    1
    89    41    90    1
    90    41    91    1
    91    42    43    1
    92    42    92    1
    93    43    44    2

