DMS_1_A_402
  -ISIS-            3D

 10  9  0  0  0  0  0  0  0  0  1 V2000
   -0.3650    9.3340   -6.7910 S   0  0  0  0  0
    0.3210    9.5160   -8.0790 O   0  0  0  0  0
   -0.8650   10.9520   -6.3230 C   0  0  0  0  0
   -1.9750    8.7720   -7.2230 C   0  0  0  0  0
   -1.5496   10.9013   -5.4516 H   0  0  0  0  0
   -1.3755   11.4663   -7.1631 H   0  0  0  0  0
    0.0288   11.5424   -6.0346 H   0  0  0  0  0
   -2.6316    8.7763   -6.3290 H   0  0  0  0  0
   -1.9093    7.7333   -7.6068 H   0  0  0  0  0
   -2.4198    9.4151   -8.0101 H   0  0  0  0  0
  1  2  2  0  0  0
  1  3  1  0  0  0
  1  4  1  0  0  0
  3  5  1  0  0  0
  3  6  1  0  0  0
  3  7  1  0  0  0
  4  8  1  0  0  0
  4  9  1  0  0  0
  4 10  1  0  0  0
M  END
$$$$
