@<TRIPOS>MOLECULE
DMS_1_A_402
 10 9 0 0 0
SMALL
NO_CHARGES

@<TRIPOS>ATOM
      1 S          -0.3650    9.3340   -6.7910 S.o    402  DMS402      0.0000
      2 O           0.3210    9.5160   -8.0790 O.2    402  DMS402      0.0000
      3 C1         -0.8650   10.9520   -6.3230 C.3    402  DMS402      0.0000
      4 C2         -1.9750    8.7720   -7.2230 C.3    402  DMS402      0.0000
      5 H          -1.5496   10.9013   -5.4516 H      402  DMS402      0.0000
      6 H          -1.3755   11.4663   -7.1631 H      402  DMS402      0.0000
      7 H           0.0288   11.5424   -6.0346 H      402  DMS402      0.0000
      8 H          -2.6316    8.7763   -6.3290 H      402  DMS402      0.0000
      9 H          -1.9093    7.7333   -7.6068 H      402  DMS402      0.0000
     10 H          -2.4198    9.4151   -8.0101 H      402  DMS402      0.0000
@<TRIPOS>BOND
     1     1     2    2
     2     1     3    1
     3     1     4    1
     4     3     5    1
     5     3     6    1
     6     3     7    1
     7     4     8    1
     8     4     9    1
     9     4    10    1

