@<TRIPOS>MOLECULE
EDO_1_B_401
 10 9 0 0 0
SMALL
NO_CHARGES

@<TRIPOS>ATOM
      1 C1         -4.6610    9.1720   14.5200 C.3    401  EDO401      0.0000
      2 O1         -3.8430    9.3250   13.3570 O.3    401  EDO401      0.0000
      3 C2         -5.7740   10.2070   14.4380 C.3    401  EDO401      0.0000
      4 O2         -6.6550    9.9880   13.3100 O.3    401  EDO401      0.0000
      5 H          -4.0485    9.3099   15.4356 H      401  EDO401      0.0000
      6 H          -5.0777    8.1445   14.5437 H      401  EDO401      0.0000
      7 H          -3.3667   10.1422   13.4209 H      401  EDO401      0.0000
      8 H          -5.3456   11.2300   14.3758 H      401  EDO401      0.0000
      9 H          -6.3764   10.1706   15.3709 H      401  EDO401      0.0000
     10 H          -7.3129   10.6714   13.3069 H      401  EDO401      0.0000
@<TRIPOS>BOND
     1     1     2    1
     2     1     3    1
     3     1     5    1
     4     1     6    1
     5     2     7    1
     6     3     4    1
     7     3     8    1
     8     3     9    1
     9     4    10    1

