@<TRIPOS>MOLECULE
DMS_1_B_802
 10 9 0 0 0
SMALL
NO_CHARGES

@<TRIPOS>ATOM
      1 S          47.8640  -56.1260  -36.1300 S.o    802  DMS802      0.0000
      2 O          48.3850  -55.5950  -34.8660 O.2    802  DMS802      0.0000
      3 C1         46.3420  -57.0040  -36.1550 C.3    802  DMS802      0.0000
      4 C2         48.7620  -55.8970  -37.6180 C.3    802  DMS802      0.0000
      5 H          46.1101  -57.3248  -37.1908 H      802  DMS802      0.0000
      6 H          45.5285  -56.3475  -35.7847 H      802  DMS802      0.0000
      7 H          46.4185  -57.8983  -35.5036 H      802  DMS802      0.0000
      8 H          48.2148  -56.3619  -38.4630 H      802  DMS802      0.0000
      9 H          49.7611  -56.3694  -37.5256 H      802  DMS802      0.0000
     10 H          48.8848  -54.8125  -37.8148 H      802  DMS802      0.0000
@<TRIPOS>BOND
     1     1     2    2
     2     1     3    1
     3     1     4    1
     4     3     5    1
     5     3     6    1
     6     3     7    1
     7     4     8    1
     8     4     9    1
     9     4    10    1

