DMS_1_A_813
  -ISIS-            3D

 10  9  0  0  0  0  0  0  0  0  1 V2000
   35.1340  -46.6980  -27.5020 S   0  0  0  0  0
   34.6700  -48.0220  -27.9250 O   0  0  0  0  0
   34.4130  -45.9220  -26.0990 C   0  0  0  0  0
   36.3980  -45.8760  -28.4090 C   0  0  0  0  0
   34.8898  -44.9354  -25.9290 H   0  0  0  0  0
   34.5628  -46.5597  -25.2041 H   0  0  0  0  0
   33.3268  -45.7786  -26.2713 H   0  0  0  0  0
   36.6187  -44.8953  -27.9409 H   0  0  0  0  0
   36.0609  -45.7156  -29.4533 H   0  0  0  0  0
   37.3173  -46.4963  -28.4099 H   0  0  0  0  0
  1  2  2  0  0  0
  1  3  1  0  0  0
  1  4  1  0  0  0
  3  5  1  0  0  0
  3  6  1  0  0  0
  3  7  1  0  0  0
  4  8  1  0  0  0
  4  9  1  0  0  0
  4 10  1  0  0  0
M  END
$$$$
