@<TRIPOS>MOLECULE
DOZ_1_A_901
 12 11 0 0 0
SMALL
NO_CHARGES

@<TRIPOS>ATOM
      1 ZN         33.6030  -26.9580   -8.1870 Zn     901  DOZ901      2.0000
      2 N2         34.3460  -25.1550   -7.9180 N.3    901  DOZ901      0.0000
      3 O4         33.1830  -27.6300   -6.4490 O.3    901  DOZ901      0.0000
      4 C6         34.7300  -24.5710   -9.2250 C.3    901  DOZ901      0.0000
      5 C8         35.5200  -25.2400   -7.0290 C.3    901  DOZ901      0.0000
      6 H          32.2392  -27.7139   -6.4631 H      901  DOZ901      0.0000
      7 H          35.1295  -23.5423   -9.0940 H      901  DOZ901      0.0000
      8 H          33.8386  -24.5123   -9.8855 H      901  DOZ901      0.0000
      9 H          35.4976  -25.1967   -9.7298 H      901  DOZ901      0.0000
     10 H          35.9606  -24.2338   -6.8613 H      901  DOZ901      0.0000
     11 H          36.2973  -25.9078   -7.4594 H      901  DOZ901      0.0000
     12 H          35.2171  -25.6486   -6.0415 H      901  DOZ901      0.0000
@<TRIPOS>BOND
     1     1     2    1
     2     1     3    1
     3     2     4    1
     4     2     5    1
     5     3     6    1
     6     4     7    1
     7     4     8    1
     8     4     9    1
     9     5    10    1
    10     5    11    1
    11     5    12    1

