DOZ_1_A_901
  -ISIS-            3D

 12 11  0  0  0  0  0  0  0  0  1 V2000
   33.6030  -26.9580   -8.1870 Zn  0  2  0  0  0
   34.3460  -25.1550   -7.9180 N   0  0  0  0  0
   33.1830  -27.6300   -6.4490 O   0  0  0  0  0
   34.7300  -24.5710   -9.2250 C   0  0  0  0  0
   35.5200  -25.2400   -7.0290 C   0  0  0  0  0
   32.2392  -27.7139   -6.4631 H   0  0  0  0  0
   35.1295  -23.5423   -9.0940 H   0  0  0  0  0
   33.8386  -24.5123   -9.8855 H   0  0  0  0  0
   35.4976  -25.1967   -9.7298 H   0  0  0  0  0
   35.9606  -24.2338   -6.8613 H   0  0  0  0  0
   36.2973  -25.9078   -7.4594 H   0  0  0  0  0
   35.2171  -25.6486   -6.0415 H   0  0  0  0  0
  1  2  1  0  0  0
  1  3  1  0  0  0
  2  4  1  0  0  0
  2  5  1  0  0  0
  3  6  1  0  0  0
  4  7  1  0  0  0
  4  8  1  0  0  0
  4  9  1  0  0  0
  5 10  1  0  0  0
  5 11  1  0  0  0
  5 12  1  0  0  0
M  END
$$$$
