@<TRIPOS>MOLECULE
DOZ_1_B_902
 12 11 0 0 0
SMALL
NO_CHARGES

@<TRIPOS>ATOM
      1 ZN         51.0150  -53.9520  -41.2170 Zn     902  DOZ902      2.0000
      2 N2         50.7740  -55.8860  -40.9540 N.3    902  DOZ902      0.0000
      3 O4         49.9700  -53.4000  -42.7310 O.3    902  DOZ902      0.0000
      4 C6         51.5840  -56.3510  -39.7880 C.3    902  DOZ902      0.0000
      5 C8         51.1980  -56.5830  -42.1820 C.3    902  DOZ902      0.0000
      6 H          49.3308  -52.8084  -42.3575 H      902  DOZ902      0.0000
      7 H          51.4455  -57.4414  -39.6242 H      902  DOZ902      0.0000
      8 H          51.2563  -55.8193  -38.8691 H      902  DOZ902      0.0000
      9 H          52.6639  -56.1416  -39.9471 H      902  DOZ902      0.0000
     10 H          51.0738  -57.6820  -42.0734 H      902  DOZ902      0.0000
     11 H          52.2612  -56.3611  -42.4183 H      902  DOZ902      0.0000
     12 H          50.5736  -56.2516  -43.0389 H      902  DOZ902      0.0000
@<TRIPOS>BOND
     1     1     2    1
     2     1     3    1
     3     2     4    1
     4     2     5    1
     5     3     6    1
     6     4     7    1
     7     4     8    1
     8     4     9    1
     9     5    10    1
    10     5    11    1
    11     5    12    1

