@<TRIPOS>MOLECULE
DMS_1_A_402
 10 9 0 0 0
SMALL
NO_CHARGES

@<TRIPOS>ATOM
      1 S           5.4650   -1.2120   -6.1800 S.o    402  DMS402      0.0000
      2 O           6.2240   -0.5220   -7.1440 O.2    402  DMS402      0.0000
      3 C1          6.4300   -1.4430   -4.7640 C.3    402  DMS402      0.0000
      4 C2          5.2590   -2.8250   -6.6900 C.3    402  DMS402      0.0000
      5 H           5.8729   -2.0459   -4.0181 H      402  DMS402      0.0000
      6 H           6.6709   -0.4582   -4.3137 H      402  DMS402      0.0000
      7 H           7.3776   -1.9613   -5.0182 H      402  DMS402      0.0000
      8 H           4.7222   -3.4061   -5.9127 H      402  DMS402      0.0000
      9 H           6.2409   -3.3028   -6.8869 H      402  DMS402      0.0000
     10 H           4.6589   -2.8484   -7.6227 H      402  DMS402      0.0000
@<TRIPOS>BOND
     1     1     2    2
     2     1     3    1
     3     1     4    1
     4     3     5    1
     5     3     6    1
     6     3     7    1
     7     4     8    1
     8     4     9    1
     9     4    10    1

