@<TRIPOS>MOLECULE
DMS_2_A_405
 10 9 0 0 0
SMALL
NO_CHARGES

@<TRIPOS>ATOM
      1 S          -7.8100  -28.0960  -21.2570 S.o    405  DMS405      0.0000
      2 O          -8.5400  -27.1380  -22.1130 O.2    405  DMS405      0.0000
      3 C1         -6.9000  -27.2030  -20.0910 C.3    405  DMS405      0.0000
      4 C2         -6.5070  -28.8410  -22.2270 C.3    405  DMS405      0.0000
      5 H          -6.2805  -27.8947  -19.4840 H      405  DMS405      0.0000
      6 H          -7.5920  -26.6595  -19.4157 H      405  DMS405      0.0000
      7 H          -6.2393  -26.4687  -20.5955 H      405  DMS405      0.0000
      8 H          -5.8961  -29.5070  -21.5838 H      405  DMS405      0.0000
      9 H          -5.8600  -28.0537  -22.6648 H      405  DMS405      0.0000
     10 H          -6.9556  -29.4407  -23.0452 H      405  DMS405      0.0000
@<TRIPOS>BOND
     1     1     2    2
     2     1     3    1
     3     1     4    1
     4     3     5    1
     5     3     6    1
     6     3     7    1
     7     4     8    1
     8     4     9    1
     9     4    10    1

