@<TRIPOS>MOLECULE
ZU5_1_A_2001
 93 95 0 0 0
SMALL
NO_CHARGES

@<TRIPOS>ATOM
      1 C72        18.6370    3.6200   20.0610 C.2   2001  ZU52001      0.0000
      2 O74        19.8400    3.3830   20.3030 O.2   2001  ZU52001      0.0000
      3 O76        18.5340    4.4600   18.9720 O.3   2001  ZU52001      0.0000
      4 C78        19.5010    5.0810   18.1090 C.3   2001  ZU52001      0.0000
      5 C80        20.2380    6.1950   18.8100 C.ar  2001  ZU52001      0.0000
      6 C82        21.4910    6.0220   19.3150 C.ar  2001  ZU52001      0.0000
      7 C83        22.2610    7.0770   20.0130 C.ar  2001  ZU52001      0.0000
      8 C84        21.6250    8.4120   20.1730 C.ar  2001  ZU52001      0.0000
      9 C85        20.2720    8.5950   19.6270 C.ar  2001  ZU52001      0.0000
     10 C86        19.5820    7.4820   18.9470 C.ar  2001  ZU52001      0.0000
     11 N70        17.6680    3.0370   20.8770 N.am  2001  ZU52001      0.0000
     12 C54        17.8840    2.1690   21.9970 C.3   2001  ZU52001      0.0000
     13 C50        16.9660    1.1040   21.7780 C.2   2001  ZU52001      0.0000
     14 O52        15.7790    0.9270   21.7220 O.2   2001  ZU52001      0.0000
     15 C56        17.5360    2.9700   23.2490 C.3   2001  ZU52001      0.0000
     16 O60        18.2700    4.1480   23.7710 O.3   2001  ZU52001      0.0000
     17 C58        17.7730    2.1210   24.5500 C.3   2001  ZU52001      0.0000
     18 C62        17.8120    5.5420   24.0750 C.3   2001  ZU52001      0.0000
     19 C64        16.4110    5.4460   24.6760 C.3   2001  ZU52001      0.0000
     20 C66        17.7080    6.3340   22.6740 C.3   2001  ZU52001      0.0000
     21 C68        19.0080    6.3320   24.5710 C.3   2001  ZU52001      0.0000
     22 N48        17.8210    0.0890   21.6290 N.am  2001  ZU52001      0.0000
     23 C38        17.3130   -1.2660   21.4000 C.3   2001  ZU52001      0.0000
     24 C34        16.6500   -1.8650   22.6360 C.2   2001  ZU52001      0.0000
     25 O36        17.2120   -1.7270   23.7130 O.2   2001  ZU52001      0.0000
     26 C40        18.4390   -2.1000   20.7340 C.3   2001  ZU52001      0.0000
     27 C42        19.0910   -2.1200   19.3660 C.3   2001  ZU52001      0.0000
     28 C44        18.0560   -2.2770   18.2430 C.3   2001  ZU52001      0.0000
     29 C46        20.1420   -3.2480   19.3100 C.3   2001  ZU52001      0.0000
     30 C1         16.1530   -7.3010   24.9600 C.3   2001  ZU52001      0.0000
     31 C2         17.2660   -7.7130   23.9620 C.3   2001  ZU52001      0.0000
     32 C4         17.5650   -6.6500   25.0110 C.3   2001  ZU52001      0.0000
     33 C7         15.0940   -6.2300   24.6040 C.2   2001  ZU52001      0.0000
     34 C9         15.3920   -5.0530   23.6930 C.2   2001  ZU52001      0.0000
     35 C11        14.3790   -4.2190   23.4890 C.2   2001  ZU52001      0.0000
     36 C13        14.5370   -2.8040   23.6380 C.2   2001  ZU52001      0.0000
     37 C15        13.4960   -1.7050   23.8700 C.2   2001  ZU52001      0.0000
     38 C17        13.5530   -0.2100   24.3000 C.3   2001  ZU52001      0.0000
     39 C19        14.0390   -0.1500   25.7540 C.3   2001  ZU52001      0.0000
     40 C21        13.4760    1.1700   26.2870 C.3   2001  ZU52001      0.0000
     41 N23        12.2510    1.2910   25.5530 N.am  2001  ZU52001      0.0000
     42 C25        12.2850    0.5020   24.4090 C.2   2001  ZU52001      0.0000
     43 O28        11.3530    0.4180   23.5800 O.2   2001  ZU52001      0.0000
     44 O30        13.9680   -6.3740   25.0970 O.2   2001  ZU52001      0.0000
     45 N32        15.3750   -2.5530   22.5980 N.am  2001  ZU52001      0.0000
     46 H          18.9870    5.4887   17.2142 H     2001  ZU52001      0.0000
     47 H          20.2166    4.3234   17.7282 H     2001  ZU52001      0.0000
     48 H          21.9790    5.0374   19.2103 H     2001  ZU52001      0.0000
     49 H          23.2727    6.8802   20.4035 H     2001  ZU52001      0.0000
     50 H          22.1514    9.2340   20.6844 H     2001  ZU52001      0.0000
     51 H          19.7686    9.5711   19.7281 H     2001  ZU52001      0.0000
     52 H          18.5657    7.6380   18.5480 H     2001  ZU52001      0.0000
     53 H          16.6910    3.2547   20.6346 H     2001  ZU52001      0.0000
     54 H          18.9650    1.9217   22.0857 H     2001  ZU52001      0.0000
     55 H          16.4528    3.2166   23.2008 H     2001  ZU52001      0.0000
     56 H          17.4296    2.6429   25.4699 H     2001  ZU52001      0.0000
     57 H          18.8473    1.8668   24.6876 H     2001  ZU52001      0.0000
     58 H          17.2148    1.1607   24.5097 H     2001  ZU52001      0.0000
     59 H          16.0306    6.4553   24.9449 H     2001  ZU52001      0.0000
     60 H          16.4110    4.8480   25.6125 H     2001  ZU52001      0.0000
     61 H          15.6641    5.0000   23.9867 H     2001  ZU52001      0.0000
     62 H          17.4236    7.4003   22.8126 H     2001  ZU52001      0.0000
     63 H          16.9268    5.8802   22.0258 H     2001  ZU52001      0.0000
     64 H          18.6517    6.3029   22.0860 H     2001  ZU52001      0.0000
     65 H          18.7833    7.4131   24.7022 H     2001  ZU52001      0.0000
     66 H          19.9041    6.2432   23.9183 H     2001  ZU52001      0.0000
     67 H          19.3182    5.9604   25.5721 H     2001  ZU52001      0.0000
     68 H          18.8452    0.1834   21.6668 H     2001  ZU52001      0.0000
     69 H          16.4985   -1.2149   20.6315 H     2001  ZU52001      0.0000
     70 H          18.0676   -3.1480   20.8581 H     2001  ZU52001      0.0000
     71 H          19.2860   -2.0479   21.4616 H     2001  ZU52001      0.0000
     72 H          19.6150   -1.1440   19.2172 H     2001  ZU52001      0.0000
     73 H          18.5377   -2.2770   17.2397 H     2001  ZU52001      0.0000
     74 H          17.3179   -1.4441   18.2486 H     2001  ZU52001      0.0000
     75 H          17.4843   -3.2273   18.3360 H     2001  ZU52001      0.0000
     76 H          20.6690   -3.2611   18.3297 H     2001  ZU52001      0.0000
     77 H          19.6851   -4.2534   19.4485 H     2001  ZU52001      0.0000
     78 H          20.9238   -3.1265   20.0929 H     2001  ZU52001      0.0000
     79 H          15.9453   -8.0281   25.7451 H     2001  ZU52001      0.0000
     80 H          17.1359   -7.3562   22.9444 H     2001  ZU52001      0.0000
     81 H          17.7112   -8.6885   24.1373 H     2001  ZU52001      0.0000
     82 H          18.1920   -6.9709   25.8385 H     2001  ZU52001      0.0000
     83 H          17.6979   -5.6404   24.6464 H     2001  ZU52001      0.0000
     84 H          16.4226   -4.8249   23.3937 H     2001  ZU52001      0.0000
     85 H          13.3474   -4.6024   23.5078 H     2001  ZU52001      0.0000
     86 H          14.2507    0.3557   23.6419 H     2001  ZU52001      0.0000
     87 H          15.1484   -0.1970   25.8312 H     2001  ZU52001      0.0000
     88 H          13.6209   -0.9960   26.3481 H     2001  ZU52001      0.0000
     89 H          14.1686    2.0143   26.0668 H     2001  ZU52001      0.0000
     90 H          13.3173    1.1269   27.3877 H     2001  ZU52001      0.0000
     91 H          11.4433    1.8736   25.8061 H     2001  ZU52001      0.0000
     92 H          13.0434   -1.5883   22.8588 H     2001  ZU52001      0.0000
     93 H          12.7088   -2.1592   24.5080 H     2001  ZU52001      0.0000
@<TRIPOS>BOND
     1     1     2    2
     2     1     3    1
     3     1    11    1
     4     3     4    1
     5     4     5    1
     6     4    46    1
     7     4    47    1
     8     5     6   ar
     9     5    10   ar
    10     6     7   ar
    11     6    48    1
    12     7     8   ar
    13     7    49    1
    14     8     9   ar
    15     8    50    1
    16     9    10   ar
    17     9    51    1
    18    10    52    1
    19    11    12    1
    20    11    53    1
    21    12    13    1
    22    12    15    1
    23    12    54    1
    24    13    14    2
    25    13    22    1
    26    15    16    1
    27    15    17    1
    28    15    55    1
    29    16    18    1
    30    17    56    1
    31    17    57    1
    32    17    58    1
    33    18    19    1
    34    18    20    1
    35    18    21    1
    36    19    59    1
    37    19    60    1
    38    19    61    1
    39    20    62    1
    40    20    63    1
    41    20    64    1
    42    21    65    1
    43    21    66    1
    44    21    67    1
    45    22    23    1
    46    22    68    1
    47    23    24    1
    48    23    26    1
    49    23    69    1
    50    24    25    2
    51    24    45    1
    52    26    27    1
    53    26    70    1
    54    26    71    1
    55    27    28    1
    56    27    29    1
    57    27    72    1
    58    28    73    1
    59    28    74    1
    60    28    75    1
    61    29    76    1
    62    29    77    1
    63    29    78    1
    64    30    31    1
    65    30    32    1
    66    30    33    1
    67    30    79    1
    68    31    32    1
    69    31    80    1
    70    31    81    1
    71    32    82    1
    72    32    83    1
    73    33    34    1
    74    33    44    2
    75    34    35    2
    76    34    84    1
    77    35    36    1
    78    35    85    1
    79    36    37    1
    80    36    45    2
    81    37    38    1
    82    37    92    1
    83    37    93    1
    84    38    39    1
    85    38    42    1
    86    38    86    1
    87    39    40    1
    88    39    87    1
    89    39    88    1
    90    40    41    1
    91    40    89    1
    92    40    90    1
    93    41    42    1
    94    41    91    1
    95    42    43    2

