@<TRIPOS>MOLECULE
ZU5_2_A_2001
 93 95 0 0 0
SMALL
NO_CHARGES

@<TRIPOS>ATOM
      1 C72       -31.9710    3.6200   31.5340 C.2   2001  ZU52001      0.0000
      2 O74       -33.1740    3.3830   31.2920 O.2   2001  ZU52001      0.0000
      3 O76       -31.8680    4.4600   32.6230 O.3   2001  ZU52001      0.0000
      4 C78       -32.8350    5.0810   33.4860 C.3   2001  ZU52001      0.0000
      5 C80       -33.5720    6.1950   32.7850 C.ar  2001  ZU52001      0.0000
      6 C82       -34.8250    6.0220   32.2800 C.ar  2001  ZU52001      0.0000
      7 C83       -35.5950    7.0770   31.5820 C.ar  2001  ZU52001      0.0000
      8 C84       -34.9590    8.4120   31.4220 C.ar  2001  ZU52001      0.0000
      9 C85       -33.6060    8.5950   31.9680 C.ar  2001  ZU52001      0.0000
     10 C86       -32.9160    7.4820   32.6480 C.ar  2001  ZU52001      0.0000
     11 N70       -31.0020    3.0370   30.7180 N.am  2001  ZU52001      0.0000
     12 C54       -31.2180    2.1690   29.5980 C.3   2001  ZU52001      0.0000
     13 C50       -30.3000    1.1040   29.8170 C.2   2001  ZU52001      0.0000
     14 O52       -29.1130    0.9270   29.8730 O.2   2001  ZU52001      0.0000
     15 C56       -30.8700    2.9700   28.3460 C.3   2001  ZU52001      0.0000
     16 O60       -31.6040    4.1480   27.8240 O.3   2001  ZU52001      0.0000
     17 C58       -31.1070    2.1210   27.0450 C.3   2001  ZU52001      0.0000
     18 C62       -31.1460    5.5420   27.5200 C.3   2001  ZU52001      0.0000
     19 C64       -29.7450    5.4460   26.9190 C.3   2001  ZU52001      0.0000
     20 C66       -31.0420    6.3340   28.9210 C.3   2001  ZU52001      0.0000
     21 C68       -32.3420    6.3320   27.0240 C.3   2001  ZU52001      0.0000
     22 N48       -31.1550    0.0890   29.9660 N.am  2001  ZU52001      0.0000
     23 C38       -30.6470   -1.2660   30.1950 C.3   2001  ZU52001      0.0000
     24 C34       -29.9840   -1.8650   28.9590 C.2   2001  ZU52001      0.0000
     25 O36       -30.5460   -1.7270   27.8820 O.2   2001  ZU52001      0.0000
     26 C40       -31.7730   -2.1000   30.8610 C.3   2001  ZU52001      0.0000
     27 C42       -32.4250   -2.1200   32.2290 C.3   2001  ZU52001      0.0000
     28 C44       -31.3900   -2.2770   33.3520 C.3   2001  ZU52001      0.0000
     29 C46       -33.4760   -3.2480   32.2850 C.3   2001  ZU52001      0.0000
     30 C1        -29.4870   -7.3010   26.6350 C.3   2001  ZU52001      0.0000
     31 C2        -30.6000   -7.7130   27.6330 C.3   2001  ZU52001      0.0000
     32 C4        -30.8990   -6.6500   26.5840 C.3   2001  ZU52001      0.0000
     33 C7        -28.4280   -6.2300   26.9910 C.2   2001  ZU52001      0.0000
     34 C9        -28.7260   -5.0530   27.9020 C.2   2001  ZU52001      0.0000
     35 C11       -27.7130   -4.2190   28.1060 C.2   2001  ZU52001      0.0000
     36 C13       -27.8710   -2.8040   27.9570 C.2   2001  ZU52001      0.0000
     37 C15       -26.8300   -1.7050   27.7250 C.2   2001  ZU52001      0.0000
     38 C17       -26.8870   -0.2100   27.2950 C.3   2001  ZU52001      0.0000
     39 C19       -27.3730   -0.1500   25.8410 C.3   2001  ZU52001      0.0000
     40 C21       -26.8100    1.1700   25.3080 C.3   2001  ZU52001      0.0000
     41 N23       -25.5850    1.2910   26.0420 N.am  2001  ZU52001      0.0000
     42 C25       -25.6190    0.5020   27.1860 C.2   2001  ZU52001      0.0000
     43 O28       -24.6870    0.4180   28.0150 O.2   2001  ZU52001      0.0000
     44 O30       -27.3020   -6.3740   26.4980 O.2   2001  ZU52001      0.0000
     45 N32       -28.7090   -2.5530   28.9970 N.am  2001  ZU52001      0.0000
     46 H         -32.3210    5.4887   34.3808 H     2001  ZU52001      0.0000
     47 H         -33.5506    4.3234   33.8668 H     2001  ZU52001      0.0000
     48 H         -35.3130    5.0374   32.3847 H     2001  ZU52001      0.0000
     49 H         -36.6067    6.8802   31.1915 H     2001  ZU52001      0.0000
     50 H         -35.4854    9.2340   30.9106 H     2001  ZU52001      0.0000
     51 H         -33.1026    9.5711   31.8669 H     2001  ZU52001      0.0000
     52 H         -31.8997    7.6380   33.0470 H     2001  ZU52001      0.0000
     53 H         -30.0250    3.2547   30.9604 H     2001  ZU52001      0.0000
     54 H         -32.2990    1.9217   29.5093 H     2001  ZU52001      0.0000
     55 H         -29.7868    3.2167   28.3942 H     2001  ZU52001      0.0000
     56 H         -30.7638    2.6430   26.1251 H     2001  ZU52001      0.0000
     57 H         -32.1812    1.8666   26.9075 H     2001  ZU52001      0.0000
     58 H         -30.5486    1.1608   27.0852 H     2001  ZU52001      0.0000
     59 H         -29.3645    6.4553   26.6503 H     2001  ZU52001      0.0000
     60 H         -29.7450    4.8481   25.9824 H     2001  ZU52001      0.0000
     61 H         -28.9981    4.9999   27.6083 H     2001  ZU52001      0.0000
     62 H         -30.7574    7.4003   28.7824 H     2001  ZU52001      0.0000
     63 H         -30.2609    5.8801   29.5693 H     2001  ZU52001      0.0000
     64 H         -31.9857    6.3030   29.5090 H     2001  ZU52001      0.0000
     65 H         -32.1172    7.4130   26.8925 H     2001  ZU52001      0.0000
     66 H         -33.2380    6.2434   27.6769 H     2001  ZU52001      0.0000
     67 H         -32.6524    5.9602   26.0230 H     2001  ZU52001      0.0000
     68 H         -32.1792    0.1834   29.9282 H     2001  ZU52001      0.0000
     69 H         -29.8325   -1.2149   30.9635 H     2001  ZU52001      0.0000
     70 H         -31.4016   -3.1480   30.7369 H     2001  ZU52001      0.0000
     71 H         -32.6200   -2.0479   30.1334 H     2001  ZU52001      0.0000
     72 H         -32.9490   -1.1440   32.3778 H     2001  ZU52001      0.0000
     73 H         -31.8717   -2.2770   34.3553 H     2001  ZU52001      0.0000
     74 H         -30.6519   -1.4441   33.3464 H     2001  ZU52001      0.0000
     75 H         -30.8183   -3.2273   33.2589 H     2001  ZU52001      0.0000
     76 H         -34.0030   -3.2612   33.2654 H     2001  ZU52001      0.0000
     77 H         -33.0191   -4.2534   32.1464 H     2001  ZU52001      0.0000
     78 H         -34.2579   -3.1264   31.5022 H     2001  ZU52001      0.0000
     79 H         -29.2793   -8.0281   25.8499 H     2001  ZU52001      0.0000
     80 H         -30.4699   -7.3562   28.6506 H     2001  ZU52001      0.0000
     81 H         -31.0452   -8.6885   27.4577 H     2001  ZU52001      0.0000
     82 H         -31.5260   -6.9709   25.7565 H     2001  ZU52001      0.0000
     83 H         -31.0319   -5.6404   26.9486 H     2001  ZU52001      0.0000
     84 H         -29.7566   -4.8249   28.2013 H     2001  ZU52001      0.0000
     85 H         -26.6814   -4.6024   28.0872 H     2001  ZU52001      0.0000
     86 H         -27.5847    0.3557   27.9531 H     2001  ZU52001      0.0000
     87 H         -28.4824   -0.1970   25.7638 H     2001  ZU52001      0.0000
     88 H         -26.9549   -0.9960   25.2469 H     2001  ZU52001      0.0000
     89 H         -27.5026    2.0143   25.5282 H     2001  ZU52001      0.0000
     90 H         -26.6513    1.1269   24.2073 H     2001  ZU52001      0.0000
     91 H         -24.7773    1.8736   25.7889 H     2001  ZU52001      0.0000
     92 H         -26.3773   -1.5883   28.7362 H     2001  ZU52001      0.0000
     93 H         -26.0428   -2.1592   27.0869 H     2001  ZU52001      0.0000
@<TRIPOS>BOND
     1     1     2    2
     2     1     3    1
     3     1    11    1
     4     3     4    1
     5     4     5    1
     6     4    46    1
     7     4    47    1
     8     5     6   ar
     9     5    10   ar
    10     6     7   ar
    11     6    48    1
    12     7     8   ar
    13     7    49    1
    14     8     9   ar
    15     8    50    1
    16     9    10   ar
    17     9    51    1
    18    10    52    1
    19    11    12    1
    20    11    53    1
    21    12    13    1
    22    12    15    1
    23    12    54    1
    24    13    14    2
    25    13    22    1
    26    15    16    1
    27    15    17    1
    28    15    55    1
    29    16    18    1
    30    17    56    1
    31    17    57    1
    32    17    58    1
    33    18    19    1
    34    18    20    1
    35    18    21    1
    36    19    59    1
    37    19    60    1
    38    19    61    1
    39    20    62    1
    40    20    63    1
    41    20    64    1
    42    21    65    1
    43    21    66    1
    44    21    67    1
    45    22    23    1
    46    22    68    1
    47    23    24    1
    48    23    26    1
    49    23    69    1
    50    24    25    2
    51    24    45    1
    52    26    27    1
    53    26    70    1
    54    26    71    1
    55    27    28    1
    56    27    29    1
    57    27    72    1
    58    28    73    1
    59    28    74    1
    60    28    75    1
    61    29    76    1
    62    29    77    1
    63    29    78    1
    64    30    31    1
    65    30    32    1
    66    30    33    1
    67    30    79    1
    68    31    32    1
    69    31    80    1
    70    31    81    1
    71    32    82    1
    72    32    83    1
    73    33    34    1
    74    33    44    2
    75    34    35    2
    76    34    84    1
    77    35    36    1
    78    35    85    1
    79    36    37    1
    80    36    45    2
    81    37    38    1
    82    37    92    1
    83    37    93    1
    84    38    39    1
    85    38    42    1
    86    38    86    1
    87    39    40    1
    88    39    87    1
    89    39    88    1
    90    40    41    1
    91    40    89    1
    92    40    90    1
    93    41    42    1
    94    41    91    1
    95    42    43    2

