@<TRIPOS>MOLECULE
1LQ_1_A_201
 18 19 0 0 0
SMALL
NO_CHARGES

@<TRIPOS>ATOM
      1 CAE       -49.8840  -29.1420    3.1780 C.ar   201  1LQ201      0.0000
      2 CAB       -48.5870  -29.0510    2.7570 C.ar   201  1LQ201      0.0000
      3 CAC       -47.5890  -29.0150    3.7310 C.ar   201  1LQ201      0.0000
      4 CAF       -47.9000  -29.0730    5.0450 C.ar   201  1LQ201      0.0000
      5 C5        -49.2690  -29.1680    5.4810 C.ar   201  1LQ201      0.0000
      6 C4        -50.2530  -29.2350    4.5650 C.ar   201  1LQ201      0.0000
      7 N3        -51.5160  -29.4250    4.9730 N.ar   201  1LQ201      0.0000
      8 C2        -51.7990  -29.4930    6.2500 C.ar   201  1LQ201      0.0000
      9 N1        -50.9080  -29.4300    7.2200 N.ar   201  1LQ201      0.0000
     10 C6        -49.6620  -29.2650    6.8300 C.ar   201  1LQ201      0.0000
     11 NAA       -48.5460  -29.2210    7.7150 N.3    201  1LQ201      0.0000
     12 H         -50.6897  -29.1697    2.4246 H      201  1LQ201      0.0000
     13 H         -48.3352  -29.0035    1.6847 H      201  1LQ201      0.0000
     14 H         -46.5336  -28.9399    3.4168 H      201  1LQ201      0.0000
     15 H         -47.0522  -29.0452    5.7426 H      201  1LQ201      0.0000
     16 H         -52.8549  -29.6356    6.5339 H      201  1LQ201      0.0000
     17 H         -47.5790  -29.0617    7.4227 H      201  1LQ201      0.0000
     18 H         -48.8270  -29.3630    8.6937 H      201  1LQ201      0.0000
@<TRIPOS>BOND
     1     1     2   ar
     2     1     6   ar
     3     1    12    1
     4     2     3   ar
     5     2    13    1
     6     3     4   ar
     7     3    14    1
     8     4     5   ar
     9     4    15    1
    10     5     6   ar
    11     5    10   ar
    12     6     7   ar
    13     7     8   ar
    14     8     9   ar
    15     8    16    1
    16     9    10   ar
    17    10    11    1
    18    11    17    1
    19    11    18    1

