@<TRIPOS>MOLECULE
DMS_1_A_505
 10 9 0 0 0
SMALL
NO_CHARGES

@<TRIPOS>ATOM
      1 S         -24.4700   -9.7420   37.7930 S.o    505  DMS505      0.0000
      2 O         -24.0240   -8.8710   38.9260 O.2    505  DMS505      0.0000
      3 C1        -26.2660   -9.9750   37.8740 C.3    505  DMS505      0.0000
      4 C2        -23.9240  -11.4480   38.0890 C.3    505  DMS505      0.0000
      5 H         -26.5862  -10.6745   37.0750 H      505  DMS505      0.0000
      6 H         -26.7683   -8.9972   37.7261 H      505  DMS505      0.0000
      7 H         -26.5481  -10.3866   38.8647 H      505  DMS505      0.0000
      8 H         -24.3102  -12.1063   37.2842 H      505  DMS505      0.0000
      9 H         -24.3015  -11.7990   39.0712 H      505  DMS505      0.0000
     10 H         -22.8153  -11.4820   38.0881 H      505  DMS505      0.0000
@<TRIPOS>BOND
     1     1     2    2
     2     1     3    1
     3     1     4    1
     4     3     5    1
     5     3     6    1
     6     3     7    1
     7     4     8    1
     8     4     9    1
     9     4    10    1

