DMS_1_A_506
  -ISIS-            3D

 10  9  0  0  0  0  0  0  0  0  1 V2000
  -24.2950   -3.4320    9.2980 S   0  0  0  0  0
  -23.3020   -3.9550   10.2880 O   0  0  0  0  0
  -23.7150   -1.8640    8.5870 C   0  0  0  0  0
  -25.7980   -2.8800   10.1500 C   0  0  0  0  0
  -24.4815   -1.4668    7.8907 H   0  0  0  0  0
  -22.7720   -2.0418    8.0307 H   0  0  0  0  0
  -23.5313   -1.1297    9.3979 H   0  0  0  0  0
  -26.5079   -2.4545    9.4116 H   0  0  0  0  0
  -25.5399   -2.1099   10.9055 H   0  0  0  0  0
  -26.2713   -3.7468   10.6550 H   0  0  0  0  0
  1  2  2  0  0  0
  1  3  1  0  0  0
  1  4  1  0  0  0
  3  5  1  0  0  0
  3  6  1  0  0  0
  3  7  1  0  0  0
  4  8  1  0  0  0
  4  9  1  0  0  0
  4 10  1  0  0  0
M  END
$$$$
