DMS_1_A_507
  -ISIS-            3D

 10  9  0  0  0  0  0  0  0  0  1 V2000
   11.5100    2.7910   33.0540 S   0  0  0  0  0
   12.9990    2.6810   33.1150 O   0  0  0  0  0
   11.0210    3.2700   31.3730 C   0  0  0  0  0
   10.9830    4.2610   33.9780 C   0  0  0  0  0
    9.9233    3.4247   31.3362 H   0  0  0  0  0
   11.2998    2.4610   30.6672 H   0  0  0  0  0
   11.5396    4.2066   31.0824 H   0  0  0  0  0
    9.8862    4.3900   33.8751 H   0  0  0  0  0
   11.5027    5.1590   33.5853 H   0  0  0  0  0
   11.2364    4.1288   35.0497 H   0  0  0  0  0
  1  2  2  0  0  0
  1  3  1  0  0  0
  1  4  1  0  0  0
  3  5  1  0  0  0
  3  6  1  0  0  0
  3  7  1  0  0  0
  4  8  1  0  0  0
  4  9  1  0  0  0
  4 10  1  0  0  0
M  END
$$$$
