@<TRIPOS>MOLECULE
DMS_1_A_508
 10 9 0 0 0
SMALL
NO_CHARGES

@<TRIPOS>ATOM
      1 S          -0.0340  -12.9770   17.4540 S.o    508  DMS508      0.0000
      2 O           0.5150  -14.3560   17.6410 O.2    508  DMS508      0.0000
      3 C1          1.1540  -11.9980   16.5020 C.3    508  DMS508      0.0000
      4 C2          0.0000  -12.0730   19.0260 C.3    508  DMS508      0.0000
      5 H           0.7862  -10.9558   16.4084 H      508  DMS508      0.0000
      6 H           1.2633  -12.4384   15.4899 H      508  DMS508      0.0000
      7 H           2.1392  -12.0007   17.0119 H      508  DMS508      0.0000
      8 H          -0.3405  -11.0302   18.8621 H      508  DMS508      0.0000
      9 H           1.0310  -12.0686   19.4354 H      508  DMS508      0.0000
     10 H          -0.6798  -12.5700   19.7479 H      508  DMS508      0.0000
@<TRIPOS>BOND
     1     1     2    2
     2     1     3    1
     3     1     4    1
     4     3     5    1
     5     3     6    1
     6     3     7    1
     7     4     8    1
     8     4     9    1
     9     4    10    1

