DMS_2_A_402
  -ISIS-            3D

 10  9  0  0  0  0  0  0  0  0  1 V2000
   20.5510   -3.3480   41.8280 S   0  0  0  0  0
   20.4260   -2.8240   40.4330 O   0  0  0  0  0
   21.9790   -4.4610   41.9300 C   0  0  0  0  0
   21.1130   -2.0170   42.9240 C   0  0  0  0  0
   22.1142   -4.7964   42.9786 H   0  0  0  0  0
   22.8926   -3.9338   41.5867 H   0  0  0  0  0
   21.8004   -5.3448   41.2841 H   0  0  0  0  0
   21.2721   -2.4193   43.9453 H   0  0  0  0  0
   20.3396   -1.2228   42.9608 H   0  0  0  0  0
   22.0615   -1.5886   42.5403 H   0  0  0  0  0
  1  2  2  0  0  0
  1  3  1  0  0  0
  1  4  1  0  0  0
  3  5  1  0  0  0
  3  6  1  0  0  0
  3  7  1  0  0  0
  4  8  1  0  0  0
  4  9  1  0  0  0
  4 10  1  0  0  0
M  END
$$$$
