@<TRIPOS>MOLECULE
DMS_1_A_402
 10 9 0 0 0
SMALL
NO_CHARGES

@<TRIPOS>ATOM
      1 S         -29.7720   -3.3480    2.7790 S.o    402  DMS402      0.0000
      2 O         -29.6470   -2.8240    4.1740 O.2    402  DMS402      0.0000
      3 C1        -31.2000   -4.4610    2.6770 C.3    402  DMS402      0.0000
      4 C2        -30.3340   -2.0170    1.6830 C.3    402  DMS402      0.0000
      5 H         -31.3352   -4.7964    1.6284 H      402  DMS402      0.0000
      6 H         -32.1136   -3.9338    3.0203 H      402  DMS402      0.0000
      7 H         -31.0214   -5.3448    3.3229 H      402  DMS402      0.0000
      8 H         -30.4931   -2.4193    0.6617 H      402  DMS402      0.0000
      9 H         -29.5606   -1.2228    1.6462 H      402  DMS402      0.0000
     10 H         -31.2825   -1.5886    2.0667 H      402  DMS402      0.0000
@<TRIPOS>BOND
     1     1     2    2
     2     1     3    1
     3     1     4    1
     4     3     5    1
     5     3     6    1
     6     3     7    1
     7     4     8    1
     8     4     9    1
     9     4    10    1

