DMS_1_A_401
  -ISIS-            3D

 10  9  0  0  0  0  0  0  0  0  1 V2000
    6.7660  -27.6240   22.0790 S   0  0  0  0  0
    7.5180  -26.6920   22.9850 O   0  0  0  0  0
    5.7300  -26.6090   21.0670 C   0  0  0  0  0
    5.4860  -28.3680   23.0670 C   0  0  0  0  0
    5.0469  -27.2459   20.4685 H   0  0  0  0  0
    6.3616  -26.0147   20.3754 H   0  0  0  0  0
    5.1334  -25.9163   21.6953 H   0  0  0  0  0
    4.8097  -28.9635   22.4202 H   0  0  0  0  0
    4.9013  -27.5864   23.5940 H   0  0  0  0  0
    5.9481  -29.0412   23.8178 H   0  0  0  0  0
  1  2  2  0  0  0
  1  3  1  0  0  0
  1  4  1  0  0  0
  3  5  1  0  0  0
  3  6  1  0  0  0
  3  7  1  0  0  0
  4  8  1  0  0  0
  4  9  1  0  0  0
  4 10  1  0  0  0
M  END
$$$$
