DMS_1_A_404
  -ISIS-            3D

 10  9  0  0  0  0  0  0  0  0  1 V2000
    2.4030  -18.4960    8.3440 S   0  0  0  0  0
    2.1300  -19.7700    7.5830 O   0  0  0  0  0
    3.6850  -18.8860    9.5110 C   0  0  0  0  0
    1.0630  -18.2940    9.4990 C   0  0  0  0  0
    3.8418  -18.0290   10.1977 H   0  0  0  0  0
    4.6297  -19.0849    8.9648 H   0  0  0  0  0
    3.4111  -19.7856   10.0990 H   0  0  0  0  0
    1.2813  -17.4490   10.1838 H   0  0  0  0  0
    0.9200  -19.2218   10.0897 H   0  0  0  0  0
    0.1297  -18.0724    8.9418 H   0  0  0  0  0
  1  2  2  0  0  0
  1  3  1  0  0  0
  1  4  1  0  0  0
  3  5  1  0  0  0
  3  6  1  0  0  0
  3  7  1  0  0  0
  4  8  1  0  0  0
  4  9  1  0  0  0
  4 10  1  0  0  0
M  END
$$$$
