DMS_1_A_405
  -ISIS-            3D

 10  9  0  0  0  0  0  0  0  0  1 V2000
   18.4780  -18.0740   -0.2220 S   0  0  0  0  0
   17.0200  -18.2540   -0.5430 O   0  0  0  0  0
   18.6000  -18.1240    1.5530 C   0  0  0  0  0
   19.2500  -19.6420   -0.5700 C   0  0  0  0  0
   19.6669  -18.1461    1.8557 H   0  0  0  0  0
   18.0843  -19.0225    1.9499 H   0  0  0  0  0
   18.1250  -17.2167    1.9788 H   0  0  0  0  0
   20.3016  -19.6291   -0.2174 H   0  0  0  0  0
   19.2407  -19.8202   -1.6648 H   0  0  0  0  0
   18.7004  -20.4629   -0.0649 H   0  0  0  0  0
  1  2  2  0  0  0
  1  3  1  0  0  0
  1  4  1  0  0  0
  3  5  1  0  0  0
  3  6  1  0  0  0
  3  7  1  0  0  0
  4  8  1  0  0  0
  4  9  1  0  0  0
  4 10  1  0  0  0
M  END
$$$$
