@<TRIPOS>MOLECULE
DMS_1_A_403
 10 9 0 0 0
SMALL
NO_CHARGES

@<TRIPOS>ATOM
      1 S           6.2370   -0.8050   -6.1620 S.o    403  DMS403      0.0000
      2 O           7.3330   -0.7930   -7.1660 O.2    403  DMS403      0.0000
      3 C1          7.0410   -0.6490   -4.5830 C.3    403  DMS403      0.0000
      4 C2          5.7050   -2.4960   -6.0290 C.3    403  DMS403      0.0000
      5 H           6.3005   -0.7916   -3.7694 H      403  DMS403      0.0000
      6 H           7.4809    0.3653   -4.4937 H      403  DMS403      0.0000
      7 H           7.8478   -1.4036   -4.4844 H      403  DMS403      0.0000
      8 H           4.9894   -2.5991   -5.1876 H      403  DMS403      0.0000
      9 H           6.5751   -3.1619   -5.8576 H      403  DMS403      0.0000
     10 H           5.1989   -2.7964   -6.9692 H      403  DMS403      0.0000
@<TRIPOS>BOND
     1     1     2    2
     2     1     3    1
     3     1     4    1
     4     3     5    1
     5     3     6    1
     6     3     7    1
     7     4     8    1
     8     4     9    1
     9     4    10    1

