@<TRIPOS>MOLECULE
DMS_1_A_404
 10 9 0 0 0
SMALL
NO_CHARGES

@<TRIPOS>ATOM
      1 S           2.4030  -18.4960    8.3440 S.o    404  DMS404      0.0000
      2 O           2.1300  -19.7700    7.5830 O.2    404  DMS404      0.0000
      3 C1          3.6850  -18.8860    9.5110 C.3    404  DMS404      0.0000
      4 C2          1.0630  -18.2940    9.4990 C.3    404  DMS404      0.0000
      5 H           3.8418  -18.0290   10.1977 H      404  DMS404      0.0000
      6 H           4.6297  -19.0849    8.9648 H      404  DMS404      0.0000
      7 H           3.4111  -19.7856   10.0990 H      404  DMS404      0.0000
      8 H           1.2813  -17.4490   10.1838 H      404  DMS404      0.0000
      9 H           0.9200  -19.2218   10.0897 H      404  DMS404      0.0000
     10 H           0.1297  -18.0724    8.9418 H      404  DMS404      0.0000
@<TRIPOS>BOND
     1     1     2    2
     2     1     3    1
     3     1     4    1
     4     3     5    1
     5     3     6    1
     6     3     7    1
     7     4     8    1
     8     4     9    1
     9     4    10    1

