@<TRIPOS>MOLECULE
DMS_1_A_405
 10 9 0 0 0
SMALL
NO_CHARGES

@<TRIPOS>ATOM
      1 S          18.4780  -18.0740   -0.2220 S.o    405  DMS405      0.0000
      2 O          17.0200  -18.2540   -0.5430 O.2    405  DMS405      0.0000
      3 C1         18.6000  -18.1240    1.5530 C.3    405  DMS405      0.0000
      4 C2         19.2500  -19.6420   -0.5700 C.3    405  DMS405      0.0000
      5 H          19.6669  -18.1461    1.8557 H      405  DMS405      0.0000
      6 H          18.0843  -19.0225    1.9499 H      405  DMS405      0.0000
      7 H          18.1250  -17.2167    1.9788 H      405  DMS405      0.0000
      8 H          20.3016  -19.6291   -0.2174 H      405  DMS405      0.0000
      9 H          19.2407  -19.8202   -1.6648 H      405  DMS405      0.0000
     10 H          18.7004  -20.4629   -0.0649 H      405  DMS405      0.0000
@<TRIPOS>BOND
     1     1     2    2
     2     1     3    1
     3     1     4    1
     4     3     5    1
     5     3     6    1
     6     3     7    1
     7     4     8    1
     8     4     9    1
     9     4    10    1

