DMS_1_A_403
  -ISIS-            3D

 10  9  0  0  0  0  0  0  0  0  1 V2000
    6.2370   -0.8050   -6.1620 S   0  0  0  0  0
    7.3330   -0.7930   -7.1660 O   0  0  0  0  0
    7.0410   -0.6490   -4.5830 C   0  0  0  0  0
    5.7050   -2.4960   -6.0290 C   0  0  0  0  0
    6.3005   -0.7916   -3.7694 H   0  0  0  0  0
    7.4809    0.3653   -4.4937 H   0  0  0  0  0
    7.8478   -1.4036   -4.4844 H   0  0  0  0  0
    4.9894   -2.5991   -5.1876 H   0  0  0  0  0
    6.5751   -3.1619   -5.8576 H   0  0  0  0  0
    5.1989   -2.7964   -6.9692 H   0  0  0  0  0
  1  2  2  0  0  0
  1  3  1  0  0  0
  1  4  1  0  0  0
  3  5  1  0  0  0
  3  6  1  0  0  0
  3  7  1  0  0  0
  4  8  1  0  0  0
  4  9  1  0  0  0
  4 10  1  0  0  0
M  END
$$$$
