@<TRIPOS>MOLECULE
DMS_1_A_407
 10 9 0 0 0
SMALL
NO_CHARGES

@<TRIPOS>ATOM
      1 S          20.6870  -16.2460    5.3680 S.o    407  DMS407      0.0000
      2 O          21.0690  -15.3930    4.2030 O.2    407  DMS407      0.0000
      3 C1         22.1310  -16.4830    6.4410 C.3    407  DMS407      0.0000
      4 C2         20.4460  -17.9570    4.8030 C.3    407  DMS407      0.0000
      5 H          21.8703  -17.1763    7.2666 H      407  DMS407      0.0000
      6 H          22.4336  -15.5048    6.8675 H      407  DMS407      0.0000
      7 H          22.9724  -16.9033    5.8529 H      407  DMS407      0.0000
      8 H          20.2332  -18.6091    5.6747 H      407  DMS407      0.0000
      9 H          21.3590  -18.3142    4.2839 H      407  DMS407      0.0000
     10 H          19.5871  -17.9923    4.1020 H      407  DMS407      0.0000
@<TRIPOS>BOND
     1     1     2    2
     2     1     3    1
     3     1     4    1
     4     3     5    1
     5     3     6    1
     6     3     7    1
     7     4     8    1
     8     4     9    1
     9     4    10    1

