DMS_1_A_406
  -ISIS-            3D

 10  9  0  0  0  0  0  0  0  0  1 V2000
    6.1100    0.1320   18.4710 S   0  0  0  0  0
    7.3230    0.5860   17.7390 O   0  0  0  0  0
    5.1640    1.6080   18.9550 C   0  0  0  0  0
    6.6460   -0.4280   20.1150 C   0  0  0  0  0
    4.3117    1.3076   19.5981 H   0  0  0  0  0
    4.7756    2.1076   18.0440 H   0  0  0  0  0
    5.8191    2.3114   19.5088 H   0  0  0  0  0
    5.7570   -0.6757   20.7303 H   0  0  0  0  0
    7.2332    0.3705   20.6132 H   0  0  0  0  0
    7.2771   -1.3335   20.0046 H   0  0  0  0  0
  1  2  2  0  0  0
  1  3  1  0  0  0
  1  4  1  0  0  0
  3  5  1  0  0  0
  3  6  1  0  0  0
  3  7  1  0  0  0
  4  8  1  0  0  0
  4  9  1  0  0  0
  4 10  1  0  0  0
M  END
$$$$
