@<TRIPOS>MOLECULE
DMS_2_A_405
 10 9 0 0 0
SMALL
NO_CHARGES

@<TRIPOS>ATOM
      1 S          -6.2130   -1.1240    6.4260 S.o    405  DMS405      0.0000
      2 O          -7.0990   -0.8910    7.5980 O.2    405  DMS405      0.0000
      3 C1         -7.1440   -0.8380    4.8790 C.3    405  DMS405      0.0000
      4 C2         -5.8060   -2.8640    6.1700 C.3    405  DMS405      0.0000
      5 H          -6.4845   -1.0286    4.0078 H      405  DMS405      0.0000
      6 H          -7.4897    0.2156    4.8518 H      405  DMS405      0.0000
      7 H          -8.0225   -1.5142    4.8388 H      405  DMS405      0.0000
      8 H          -5.1880   -2.9723    5.2554 H      405  DMS405      0.0000
      9 H          -6.7370   -3.4577    6.0638 H      405  DMS405      0.0000
     10 H          -5.2324   -3.2369    7.0430 H      405  DMS405      0.0000
@<TRIPOS>BOND
     1     1     2    2
     2     1     3    1
     3     1     4    1
     4     3     5    1
     5     3     6    1
     6     3     7    1
     7     4     8    1
     8     4     9    1
     9     4    10    1

