DMS_2_A_405
  -ISIS-            3D

 10  9  0  0  0  0  0  0  0  0  1 V2000
   -6.2130   -1.1240    6.4260 S   0  0  0  0  0
   -7.0990   -0.8910    7.5980 O   0  0  0  0  0
   -7.1440   -0.8380    4.8790 C   0  0  0  0  0
   -5.8060   -2.8640    6.1700 C   0  0  0  0  0
   -6.4845   -1.0286    4.0078 H   0  0  0  0  0
   -7.4897    0.2156    4.8518 H   0  0  0  0  0
   -8.0225   -1.5142    4.8388 H   0  0  0  0  0
   -5.1880   -2.9723    5.2554 H   0  0  0  0  0
   -6.7370   -3.4577    6.0638 H   0  0  0  0  0
   -5.2324   -3.2369    7.0430 H   0  0  0  0  0
  1  2  2  0  0  0
  1  3  1  0  0  0
  1  4  1  0  0  0
  3  5  1  0  0  0
  3  6  1  0  0  0
  3  7  1  0  0  0
  4  8  1  0  0  0
  4  9  1  0  0  0
  4 10  1  0  0  0
M  END
$$$$
