@<TRIPOS>MOLECULE
IMD_1_A_402
 9 9 0 0 0
SMALL
NO_CHARGES

@<TRIPOS>ATOM
      1 N1          6.2420   31.5900   -1.5380 N.ar   402  IMD402      0.0000
      2 C2          5.4570   30.6190   -1.0140 C.ar   402  IMD402      0.0000
      3 N3          6.2040   29.5110   -0.8270 N.ar   402  IMD402      0.0000
      4 C4          7.4620   29.7770   -1.2360 C.ar   402  IMD402      0.0000
      5 C5          7.4870   31.0920   -1.6830 C.ar   402  IMD402      0.0000
      6 H           5.9392   32.5410   -1.7819 H      402  IMD402      0.0000
      7 H           4.3918   30.6293   -0.7497 H      402  IMD402      0.0000
      8 H           8.2387   29.0060   -1.1733 H      402  IMD402      0.0000
      9 H           8.3530   31.6388   -2.0842 H      402  IMD402      0.0000
@<TRIPOS>BOND
     1     1     2   ar
     2     1     5   ar
     3     1     6    1
     4     2     3   ar
     5     2     7    1
     6     3     4   ar
     7     4     5   ar
     8     4     8    1
     9     5     9    1

