IMD_1_A_402
  -ISIS-            3D

  9  9  0  0  0  0  0  0  0  0  1 V2000
    6.2420   31.5900   -1.5380 N   0  0  0  0  0
    5.4570   30.6190   -1.0140 C   0  0  0  0  0
    6.2040   29.5110   -0.8270 N   0  0  0  0  0
    7.4620   29.7770   -1.2360 C   0  0  0  0  0
    7.4870   31.0920   -1.6830 C   0  0  0  0  0
    5.9392   32.5410   -1.7819 H   0  0  0  0  0
    4.3918   30.6293   -0.7497 H   0  0  0  0  0
    8.2387   29.0060   -1.1733 H   0  0  0  0  0
    8.3530   31.6388   -2.0842 H   0  0  0  0  0
  1  2  2  0  0  0
  1  5  1  0  0  0
  1  6  1  0  0  0
  2  3  1  0  0  0
  2  7  1  0  0  0
  3  4  1  0  0  0
  4  5  1  0  0  0
  4  8  1  0  0  0
  5  9  1  0  0  0
M  END
$$$$
