@<TRIPOS>MOLECULE
DMS_2_A_504
 10 9 0 0 0
SMALL
NO_CHARGES

@<TRIPOS>ATOM
      1 S          -2.3230  -18.7350   -8.0710 S.o    504  DMS504      0.0000
      2 O          -2.0870  -20.1610   -7.6830 O.2    504  DMS504      0.0000
      3 C1         -1.1480  -18.2180   -9.3640 C.3    504  DMS504      0.0000
      4 C2         -3.8400  -18.6390   -9.0670 C.3    504  DMS504      0.0000
      5 H          -1.3912  -17.1886   -9.6977 H      504  DMS504      0.0000
      6 H          -1.2041  -18.9146  -10.2258 H      504  DMS504      0.0000
      7 H          -0.1203  -18.2329   -8.9473 H      504  DMS504      0.0000
      8 H          -3.9901  -17.5975   -9.4173 H      504  DMS504      0.0000
      9 H          -4.7052  -18.9408   -8.4420 H      504  DMS504      0.0000
     10 H          -3.7635  -19.3198   -9.9396 H      504  DMS504      0.0000
@<TRIPOS>BOND
     1     1     2    2
     2     1     3    1
     3     1     4    1
     4     3     5    1
     5     3     6    1
     6     3     7    1
     7     4     8    1
     8     4     9    1
     9     4    10    1

