@<TRIPOS>MOLECULE
DMS_1_A_501
 10 9 0 0 0
SMALL
NO_CHARGES

@<TRIPOS>ATOM
      1 S           5.9750    0.4920   18.2880 S.o    501  DMS501      0.0000
      2 O           7.0660    0.9470   17.3760 O.2    501  DMS501      0.0000
      3 C1          6.6950   -0.2050   19.8060 C.3    501  DMS501      0.0000
      4 C2          5.1850    1.9350   19.0610 C.3    501  DMS501      0.0000
      5 H           5.8849   -0.4665   20.5170 H      501  DMS501      0.0000
      6 H           7.3806    0.5317   20.2733 H      501  DMS501      0.0000
      7 H           7.2638   -1.1222   19.5499 H      501  DMS501      0.0000
      8 H           4.4301    1.5960   19.7994 H      501  DMS501      0.0000
      9 H           4.6815    2.5366   18.2769 H      501  DMS501      0.0000
     10 H           5.9494    2.5602   19.5668 H      501  DMS501      0.0000
@<TRIPOS>BOND
     1     1     2    2
     2     1     3    1
     3     1     4    1
     4     3     5    1
     5     3     6    1
     6     3     7    1
     7     4     8    1
     8     4     9    1
     9     4    10    1

