@<TRIPOS>MOLECULE
DMS_1_A_505
 10 9 0 0 0
SMALL
NO_CHARGES

@<TRIPOS>ATOM
      1 S           6.3200   -0.9510   -6.3150 S.o    505  DMS505      0.0000
      2 O           7.1760   -0.6910   -7.5090 O.2    505  DMS505      0.0000
      3 C1          5.7890   -2.6860   -6.2060 C.3    505  DMS505      0.0000
      4 C2          7.3020   -0.8040   -4.7910 C.3    505  DMS505      0.0000
      5 H           5.1848   -2.8318   -5.2874 H      505  DMS505      0.0000
      6 H           6.6782   -3.3486   -6.1772 H      505  DMS505      0.0000
      7 H           5.1725   -2.9354   -7.0937 H      505  DMS505      0.0000
      8 H           6.6568   -1.0112   -3.9130 H      505  DMS505      0.0000
      9 H           7.7052    0.2264   -4.7142 H      505  DMS505      0.0000
     10 H           8.1424   -1.5277   -4.8157 H      505  DMS505      0.0000
@<TRIPOS>BOND
     1     1     2    2
     2     1     3    1
     3     1     4    1
     4     3     5    1
     5     3     6    1
     6     3     7    1
     7     4     8    1
     8     4     9    1
     9     4    10    1

