@<TRIPOS>MOLECULE
IMD_2_A_506
 9 9 0 0 0
SMALL
NO_CHARGES

@<TRIPOS>ATOM
      1 N1        -20.3770  -17.3360   -4.2110 N.ar   506  IMD506      0.0000
      2 C2        -20.3590  -17.3030   -5.5610 C.ar   506  IMD506      0.0000
      3 N3        -20.6300  -16.0420   -5.9660 N.ar   506  IMD506      0.0000
      4 C4        -20.8200  -15.2780   -4.8690 C.ar   506  IMD506      0.0000
      5 C5        -20.6560  -16.0940   -3.7610 C.ar   506  IMD506      0.0000
      6 H         -20.2055  -18.1647   -3.6284 H      506  IMD506      0.0000
      7 H         -20.1706  -18.0996   -6.2921 H      506  IMD506      0.0000
      8 H         -21.0551  -14.2122   -4.9711 H      506  IMD506      0.0000
      9 H         -20.7377  -15.7999   -2.7043 H      506  IMD506      0.0000
@<TRIPOS>BOND
     1     1     2   ar
     2     1     5   ar
     3     1     6    1
     4     2     3   ar
     5     2     7    1
     6     3     4   ar
     7     4     5   ar
     8     4     8    1
     9     5     9    1

