@<TRIPOS>MOLECULE
EDO_1_A_309
 10 9 0 0 0
SMALL
NO_CHARGES

@<TRIPOS>ATOM
      1 C1         26.7920    2.3550   26.6580 C.3    309  EDO309      0.0000
      2 O1         27.0470    3.6940   26.2210 O.3    309  EDO309      0.0000
      3 C2         25.6090    1.8150   25.8640 C.3    309  EDO309      0.0000
      4 O2         25.1860    0.5550   26.4040 O.3    309  EDO309      0.0000
      5 H          26.5536    2.3754   27.7416 H      309  EDO309      0.0000
      6 H          27.6937    1.7212   26.5250 H      309  EDO309      0.0000
      7 H          27.6444    3.6613   25.4855 H      309  EDO309      0.0000
      8 H          25.8838    1.6877   24.7956 H      309  EDO309      0.0000
      9 H          24.7610    2.5314   25.9088 H      309  EDO309      0.0000
     10 H          24.4102    0.2763   25.9354 H      309  EDO309      0.0000
@<TRIPOS>BOND
     1     1     2    1
     2     1     3    1
     3     1     5    1
     4     1     6    1
     5     2     7    1
     6     3     4    1
     7     3     8    1
     8     3     9    1
     9     4    10    1

