@<TRIPOS>MOLECULE
EDO_1_M_210
 10 9 0 0 0
SMALL
NO_CHARGES

@<TRIPOS>ATOM
      1 C1         -9.4300   15.2360   46.8550 C.3    210  EDO210      0.0000
      2 O1         -8.4880   14.3700   46.2030 O.3    210  EDO210      0.0000
      3 C2         -8.6430   16.2700   47.6580 C.3    210  EDO210      0.0000
      4 O2         -7.6680   16.9150   46.8110 O.3    210  EDO210      0.0000
      5 H         -10.0913   14.6363   47.5131 H      210  EDO210      0.0000
      6 H         -10.0686   15.7292   46.0926 H      210  EDO210      0.0000
      7 H          -7.8283   14.9362   45.8178 H      210  EDO210      0.0000
      8 H          -8.1233   15.7789   48.5081 H      210  EDO210      0.0000
      9 H          -9.3313   17.0307   48.0830 H      210  EDO210      0.0000
     10 H          -7.1977   17.5495   47.3349 H      210  EDO210      0.0000
@<TRIPOS>BOND
     1     1     2    1
     2     1     3    1
     3     1     5    1
     4     1     6    1
     5     2     7    1
     6     3     4    1
     7     3     8    1
     8     3     9    1
     9     4    10    1

