@<TRIPOS>MOLECULE
EDO_1_M_207
 10 9 0 0 0
SMALL
NO_CHARGES

@<TRIPOS>ATOM
      1 C1         -6.4460   14.6570   26.4560 C.3    207  EDO207      0.0000
      2 O1         -7.8650   14.6390   26.3260 O.3    207  EDO207      0.0000
      3 C2         -6.0470   16.0470   26.0000 C.3    207  EDO207      0.0000
      4 O2         -6.8390   16.9600   26.7940 O.3    207  EDO207      0.0000
      5 H          -5.9963   13.8706   25.8169 H      207  EDO207      0.0000
      6 H          -6.1530   14.4647   27.5091 H      207  EDO207      0.0000
      7 H          -8.2004   15.3797   26.8180 H      207  EDO207      0.0000
      8 H          -6.2614   16.1958   24.9207 H      207  EDO207      0.0000
      9 H          -4.9654   16.2281   26.1703 H      207  EDO207      0.0000
     10 H          -6.6228   17.8427   26.5250 H      207  EDO207      0.0000
@<TRIPOS>BOND
     1     1     2    1
     2     1     3    1
     3     1     5    1
     4     1     6    1
     5     2     7    1
     6     3     4    1
     7     3     8    1
     8     3     9    1
     9     4    10    1

