@<TRIPOS>MOLECULE
EDO_1_A_311
 10 9 0 0 0
SMALL
NO_CHARGES

@<TRIPOS>ATOM
      1 C1         10.6380   -6.5310   -7.8580 C.3    311  EDO311      0.0000
      2 O1         11.2810   -7.4290   -8.7730 O.3    311  EDO311      0.0000
      3 C2         11.6340   -6.2880   -6.7420 C.3    311  EDO311      0.0000
      4 O2         10.9930   -5.7190   -5.6010 O.3    311  EDO311      0.0000
      5 H           9.7109   -7.0035   -7.4709 H      311  EDO311      0.0000
      6 H          10.3628   -5.5839   -8.3670 H      311  EDO311      0.0000
      7 H          10.7062   -7.5555   -9.5162 H      311  EDO311      0.0000
      8 H          12.4357   -5.6013   -7.0843 H      311  EDO311      0.0000
      9 H          12.1302   -7.2363   -6.4430 H      311  EDO311      0.0000
     10 H          10.6068   -6.4201   -5.0927 H      311  EDO311      0.0000
@<TRIPOS>BOND
     1     1     2    1
     2     1     3    1
     3     1     5    1
     4     1     6    1
     5     2     7    1
     6     3     4    1
     7     3     8    1
     8     3     9    1
     9     4    10    1

