EDO_1_A_305
  -ISIS-            3D

 10  9  0  0  0  0  0  0  0  0  1 V2000
    5.5330   -6.4710   12.5080 C   0  0  0  0  0
    5.6920   -7.7330   13.1980 O   0  0  0  0  0
    6.8670   -5.7360   12.3990 C   0  0  0  0  0
    7.8250   -6.5840   11.7530 O   0  0  0  0  0
    4.7977   -5.8425   13.0536 H   0  0  0  0  0
    5.1185   -6.6578   11.4945 H   0  0  0  0  0
    4.8427   -8.1512   13.2447 H   0  0  0  0  0
    7.2426   -5.4550   13.4052 H   0  0  0  0  0
    6.7547   -4.8004   11.8137 H   0  0  0  0  0
    7.7551   -7.4328   12.1753 H   0  0  0  0  0
  1  2  1  0  0  0
  1  3  1  0  0  0
  1  5  1  0  0  0
  1  6  1  0  0  0
  2  7  1  0  0  0
  3  4  1  0  0  0
  3  8  1  0  0  0
  3  9  1  0  0  0
  4 10  1  0  0  0
M  END
$$$$
