EDO_1_A_311
  -ISIS-            3D

 10  9  0  0  0  0  0  0  0  0  1 V2000
   10.6380   -6.5310   -7.8580 C   0  0  0  0  0
   11.2810   -7.4290   -8.7730 O   0  0  0  0  0
   11.6340   -6.2880   -6.7420 C   0  0  0  0  0
   10.9930   -5.7190   -5.6010 O   0  0  0  0  0
    9.7109   -7.0035   -7.4709 H   0  0  0  0  0
   10.3628   -5.5839   -8.3670 H   0  0  0  0  0
   10.7062   -7.5555   -9.5162 H   0  0  0  0  0
   12.4357   -5.6013   -7.0843 H   0  0  0  0  0
   12.1302   -7.2363   -6.4430 H   0  0  0  0  0
   10.6068   -6.4201   -5.0927 H   0  0  0  0  0
  1  2  1  0  0  0
  1  3  1  0  0  0
  1  5  1  0  0  0
  1  6  1  0  0  0
  2  7  1  0  0  0
  3  4  1  0  0  0
  3  8  1  0  0  0
  3  9  1  0  0  0
  4 10  1  0  0  0
M  END
$$$$
