@<TRIPOS>MOLECULE
EDO_1_A_310
 10 9 0 0 0
SMALL
NO_CHARGES

@<TRIPOS>ATOM
      1 C1         33.4610  -19.9080   10.1370 C.3    310  EDO310      0.0000
      2 O1         34.6800  -19.1790    9.9150 O.3    310  EDO310      0.0000
      3 C2         32.3430  -18.9200   10.4620 C.3    310  EDO310      0.0000
      4 O2         32.7660  -18.1100   11.5670 O.3    310  EDO310      0.0000
      5 H          33.6072  -20.6264   10.9707 H      310  EDO310      0.0000
      6 H          33.2161  -20.4968    9.2294 H      310  EDO310      0.0000
      7 H          34.7482  -18.5560   10.6300 H      310  EDO310      0.0000
      8 H          31.4095  -19.4610   10.7240 H      310  EDO310      0.0000
      9 H          32.1274  -18.2737    9.5850 H      310  EDO310      0.0000
     10 H          32.0682  -17.5020   11.7711 H      310  EDO310      0.0000
@<TRIPOS>BOND
     1     1     2    1
     2     1     3    1
     3     1     5    1
     4     1     6    1
     5     2     7    1
     6     3     4    1
     7     3     8    1
     8     3     9    1
     9     4    10    1

