@<TRIPOS>MOLECULE
EDO_1_M_205
 10 9 0 0 0
SMALL
NO_CHARGES

@<TRIPOS>ATOM
      1 C1         -6.5250    4.0520   44.4340 C.3    205  EDO205      0.0000
      2 O1         -7.9240    4.1500   44.1020 O.3    205  EDO205      0.0000
      3 C2         -6.3610    4.3360   45.9200 C.3    205  EDO205      0.0000
      4 O2         -6.8930    5.6470   46.1450 O.3    205  EDO205      0.0000
      5 H          -5.9441    4.7730   43.8213 H      205  EDO205      0.0000
      6 H          -6.1620    3.0339   44.1848 H      205  EDO205      0.0000
      7 H          -8.2243    4.9728   44.4716 H      205  EDO205      0.0000
      8 H          -5.2905    4.3034   46.2119 H      205  EDO205      0.0000
      9 H          -6.9108    3.5905   46.5320 H      205  EDO205      0.0000
     10 H          -6.7926    5.8516   47.0650 H      205  EDO205      0.0000
@<TRIPOS>BOND
     1     1     2    1
     2     1     3    1
     3     1     5    1
     4     1     6    1
     5     2     7    1
     6     3     4    1
     7     3     8    1
     8     3     9    1
     9     4    10    1

