EDO_1_M_209
  -ISIS-            3D

 10  9  0  0  0  0  0  0  0  0  1 V2000
   -2.4180    1.4390   33.9220 C   0  0  0  0  0
   -1.1420    1.4240   34.6120 O   0  0  0  0  0
   -2.6790    0.1290   33.1800 C   0  0  0  0  0
   -2.3610   -0.9520   34.0810 O   0  0  0  0  0
   -2.4385    2.2956   33.2172 H   0  0  0  0  0
   -3.2207    1.6174   34.6687 H   0  0  0  0  0
   -1.0623    0.5554   34.9903 H   0  0  0  0  0
   -2.0349    0.0602   32.2780 H   0  0  0  0  0
   -3.7379    0.0606   32.8541 H   0  0  0  0  0
   -2.5225   -1.7686   33.6277 H   0  0  0  0  0
  1  2  1  0  0  0
  1  3  1  0  0  0
  1  5  1  0  0  0
  1  6  1  0  0  0
  2  7  1  0  0  0
  3  4  1  0  0  0
  3  8  1  0  0  0
  3  9  1  0  0  0
  4 10  1  0  0  0
M  END
$$$$
