EDO_1_A_309
  -ISIS-            3D

 10  9  0  0  0  0  0  0  0  0  1 V2000
   26.7920    2.3550   26.6580 C   0  0  0  0  0
   27.0470    3.6940   26.2210 O   0  0  0  0  0
   25.6090    1.8150   25.8640 C   0  0  0  0  0
   25.1860    0.5550   26.4040 O   0  0  0  0  0
   26.5536    2.3754   27.7416 H   0  0  0  0  0
   27.6937    1.7212   26.5250 H   0  0  0  0  0
   27.6444    3.6613   25.4855 H   0  0  0  0  0
   25.8838    1.6877   24.7956 H   0  0  0  0  0
   24.7610    2.5314   25.9088 H   0  0  0  0  0
   24.4102    0.2763   25.9354 H   0  0  0  0  0
  1  2  1  0  0  0
  1  3  1  0  0  0
  1  5  1  0  0  0
  1  6  1  0  0  0
  2  7  1  0  0  0
  3  4  1  0  0  0
  3  8  1  0  0  0
  3  9  1  0  0  0
  4 10  1  0  0  0
M  END
$$$$
