@<TRIPOS>MOLECULE
EDO_1_A_306
 10 9 0 0 0
SMALL
NO_CHARGES

@<TRIPOS>ATOM
      1 C1         18.9680  -18.8570    3.3090 C.3    306  EDO306      0.0000
      2 O1         19.0710  -19.0180    4.7240 O.3    306  EDO306      0.0000
      3 C2         17.5030  -18.7170    2.9320 C.3    306  EDO306      0.0000
      4 O2         16.7680  -19.6170    3.7640 O.3    306  EDO306      0.0000
      5 H          19.4035  -19.7482    2.8084 H      306  EDO306      0.0000
      6 H          19.5485  -17.9699    2.9804 H      306  EDO306      0.0000
      7 H          19.9728  -19.2198    4.9385 H      306  EDO306      0.0000
      8 H          17.3361  -18.9532    1.8607 H      306  EDO306      0.0000
      9 H          17.1561  -17.6777    3.1147 H      306  EDO306      0.0000
     10 H          15.8422  -19.4498    3.6418 H      306  EDO306      0.0000
@<TRIPOS>BOND
     1     1     2    1
     2     1     3    1
     3     1     5    1
     4     1     6    1
     5     2     7    1
     6     3     4    1
     7     3     8    1
     8     3     9    1
     9     4    10    1

