@<TRIPOS>MOLECULE
EDO_1_A_313
 10 9 0 0 0
SMALL
NO_CHARGES

@<TRIPOS>ATOM
      1 C1         20.9010   17.4380   25.7930 C.3    313  EDO313      0.0000
      2 O1         21.5500   18.3690   24.8920 O.3    313  EDO313      0.0000
      3 C2         21.8010   16.5490   26.6690 C.3    313  EDO313      0.0000
      4 O2         21.0860   15.9880   27.8080 O.3    313  EDO313      0.0000
      5 H          20.2095   16.7963   25.2063 H      313  EDO313      0.0000
      6 H          20.2524   18.0407   26.4637 H      313  EDO313      0.0000
      7 H          22.0098   17.8688   24.2303 H      313  EDO313      0.0000
      8 H          22.6423   17.1566   27.0624 H      313  EDO313      0.0000
      9 H          22.2506   15.7327   26.0659 H      313  EDO313      0.0000
     10 H          20.5165   15.2995   27.4915 H      313  EDO313      0.0000
@<TRIPOS>BOND
     1     1     2    1
     2     1     3    1
     3     1     5    1
     4     1     6    1
     5     2     7    1
     6     3     4    1
     7     3     8    1
     8     3     9    1
     9     4    10    1

