@<TRIPOS>MOLECULE
EDO_1_A_317
 10 9 0 0 0
SMALL
NO_CHARGES

@<TRIPOS>ATOM
      1 C1          2.2050   -7.8040   11.2050 C.3    317  EDO317      0.0000
      2 O1          1.0260   -8.3430   10.5850 O.3    317  EDO317      0.0000
      3 C2          2.2420   -6.2960   11.0100 C.3    317  EDO317      0.0000
      4 O2          1.0300   -5.7040   11.5120 O.3    317  EDO317      0.0000
      5 H           3.1066   -8.2761   10.7614 H      317  EDO317      0.0000
      6 H           2.1995   -8.0464   12.2891 H      317  EDO317      0.0000
      7 H           0.9143   -9.2360   10.8839 H      317  EDO317      0.0000
      8 H           2.3526   -6.0567    9.9308 H      317  EDO317      0.0000
      9 H           3.1143   -5.8580   11.5391 H      317  EDO317      0.0000
     10 H           0.9850   -4.8094   11.2008 H      317  EDO317      0.0000
@<TRIPOS>BOND
     1     1     2    1
     2     1     3    1
     3     1     5    1
     4     1     6    1
     5     2     7    1
     6     3     4    1
     7     3     8    1
     8     3     9    1
     9     4    10    1

