@<TRIPOS>MOLECULE
EDO_1_A_305
 10 9 0 0 0
SMALL
NO_CHARGES

@<TRIPOS>ATOM
      1 C1          5.5330   -6.4710   12.5080 C.3    305  EDO305      0.0000
      2 O1          5.6920   -7.7330   13.1980 O.3    305  EDO305      0.0000
      3 C2          6.8670   -5.7360   12.3990 C.3    305  EDO305      0.0000
      4 O2          7.8250   -6.5840   11.7530 O.3    305  EDO305      0.0000
      5 H           4.7977   -5.8425   13.0536 H      305  EDO305      0.0000
      6 H           5.1185   -6.6578   11.4945 H      305  EDO305      0.0000
      7 H           4.8427   -8.1512   13.2447 H      305  EDO305      0.0000
      8 H           7.2426   -5.4550   13.4052 H      305  EDO305      0.0000
      9 H           6.7547   -4.8004   11.8137 H      305  EDO305      0.0000
     10 H           7.7551   -7.4328   12.1753 H      305  EDO305      0.0000
@<TRIPOS>BOND
     1     1     2    1
     2     1     3    1
     3     1     5    1
     4     1     6    1
     5     2     7    1
     6     3     4    1
     7     3     8    1
     8     3     9    1
     9     4    10    1

