@<TRIPOS>MOLECULE
EDO_1_M_204
 10 9 0 0 0
SMALL
NO_CHARGES

@<TRIPOS>ATOM
      1 C1         -7.2390   23.0490   41.1900 C.3    204  EDO204      0.0000
      2 O1         -7.7450   24.3660   41.0420 O.3    204  EDO204      0.0000
      3 C2         -7.5270   22.1790   39.9770 C.3    204  EDO204      0.0000
      4 O2         -6.6320   22.5040   38.9280 O.3    204  EDO204      0.0000
      5 H          -7.7105   22.5897   42.0855 H      204  EDO204      0.0000
      6 H          -6.1468   23.0858   41.3887 H      204  EDO204      0.0000
      7 H          -7.5427   24.8553   41.8284 H      204  EDO204      0.0000
      8 H          -8.5768   22.2978   39.6367 H      204  EDO204      0.0000
      9 H          -7.3876   21.1083   40.2342 H      204  EDO204      0.0000
     10 H          -6.7635   23.4223   38.7263 H      204  EDO204      0.0000
@<TRIPOS>BOND
     1     1     2    1
     2     1     3    1
     3     1     5    1
     4     1     6    1
     5     2     7    1
     6     3     4    1
     7     3     8    1
     8     3     9    1
     9     4    10    1

