EDO_1_A_307
  -ISIS-            3D

 10  9  0  0  0  0  0  0  0  0  1 V2000
   13.4230   -9.1750   15.1930 C   0  0  0  0  0
   13.9570  -10.2490   15.9930 O   0  0  0  0  0
   12.9360   -9.8080   13.9000 C   0  0  0  0  0
   14.0550  -10.4220   13.2530 O   0  0  0  0  0
   14.2185   -8.4262   15.0013 H   0  0  0  0  0
   12.5974   -8.6677   15.7346 H   0  0  0  0  0
   13.2449  -10.8148   16.2611 H   0  0  0  0  0
   12.5005   -9.0334   13.2342 H   0  0  0  0  0
   12.1472  -10.5647   14.0949 H   0  0  0  0  0
   13.7541  -10.8242   12.4484 H   0  0  0  0  0
  1  2  1  0  0  0
  1  3  1  0  0  0
  1  5  1  0  0  0
  1  6  1  0  0  0
  2  7  1  0  0  0
  3  4  1  0  0  0
  3  8  1  0  0  0
  3  9  1  0  0  0
  4 10  1  0  0  0
M  END
$$$$
