@<TRIPOS>MOLECULE
EDO_1_M_206
 10 9 0 0 0
SMALL
NO_CHARGES

@<TRIPOS>ATOM
      1 C1         -1.8280   17.1910   23.6340 C.3    206  EDO206      0.0000
      2 O1         -1.2770   17.0870   24.9700 O.3    206  EDO206      0.0000
      3 C2         -1.5350   18.5580   23.0220 C.3    206  EDO206      0.0000
      4 O2         -0.1360   18.7280   22.7580 O.3    206  EDO206      0.0000
      5 H          -2.9266   17.0348   23.6870 H      206  EDO206      0.0000
      6 H          -1.4142   16.3816   22.9964 H      206  EDO206      0.0000
      7 H          -1.4735   16.2231   25.3076 H      206  EDO206      0.0000
      8 H          -1.8722   19.3650   23.7047 H      206  EDO206      0.0000
      9 H          -2.0999   18.6823   22.0738 H      206  EDO206      0.0000
     10 H           0.1370   18.0742   22.1277 H      206  EDO206      0.0000
@<TRIPOS>BOND
     1     1     2    1
     2     1     3    1
     3     1     5    1
     4     1     6    1
     5     2     7    1
     6     3     4    1
     7     3     8    1
     8     3     9    1
     9     4    10    1

