EDO_1_M_207
  -ISIS-            3D

 10  9  0  0  0  0  0  0  0  0  1 V2000
   -6.4460   14.6570   26.4560 C   0  0  0  0  0
   -7.8650   14.6390   26.3260 O   0  0  0  0  0
   -6.0470   16.0470   26.0000 C   0  0  0  0  0
   -6.8390   16.9600   26.7940 O   0  0  0  0  0
   -5.9963   13.8706   25.8169 H   0  0  0  0  0
   -6.1530   14.4647   27.5091 H   0  0  0  0  0
   -8.2004   15.3797   26.8180 H   0  0  0  0  0
   -6.2614   16.1958   24.9207 H   0  0  0  0  0
   -4.9654   16.2281   26.1703 H   0  0  0  0  0
   -6.6228   17.8427   26.5250 H   0  0  0  0  0
  1  2  1  0  0  0
  1  3  1  0  0  0
  1  5  1  0  0  0
  1  6  1  0  0  0
  2  7  1  0  0  0
  3  4  1  0  0  0
  3  8  1  0  0  0
  3  9  1  0  0  0
  4 10  1  0  0  0
M  END
$$$$
