@<TRIPOS>MOLECULE
EDO_1_A_312
 10 9 0 0 0
SMALL
NO_CHARGES

@<TRIPOS>ATOM
      1 C1         32.1160   -1.3750   12.2480 C.3    312  EDO312      0.0000
      2 O1         32.0620   -2.8050   12.2860 O.3    312  EDO312      0.0000
      3 C2         33.1260   -0.9770   11.1790 C.3    312  EDO312      0.0000
      4 O2         34.4350   -1.2950   11.6710 O.3    312  EDO312      0.0000
      5 H          32.3895   -0.9713   13.2450 H      312  EDO312      0.0000
      6 H          31.1081   -0.9868   11.9941 H      312  EDO312      0.0000
      7 H          32.9490   -3.1024   12.4512 H      312  EDO312      0.0000
      8 H          33.0628    0.1140   10.9810 H      312  EDO312      0.0000
      9 H          32.9329   -1.5070   10.2228 H      312  EDO312      0.0000
     10 H          35.0676   -1.0393   11.0131 H      312  EDO312      0.0000
@<TRIPOS>BOND
     1     1     2    1
     2     1     3    1
     3     1     5    1
     4     1     6    1
     5     2     7    1
     6     3     4    1
     7     3     8    1
     8     3     9    1
     9     4    10    1

