@<TRIPOS>MOLECULE
EDO_1_A_316
 10 9 0 0 0
SMALL
NO_CHARGES

@<TRIPOS>ATOM
      1 C1          4.8970   20.7520   33.3150 C.3    316  EDO316      0.0000
      2 O1          5.9260   19.7820   33.4130 O.3    316  EDO316      0.0000
      3 C2          5.5470   22.0770   32.9540 C.3    316  EDO316      0.0000
      4 O2          4.5790   23.1220   33.0930 O.3    316  EDO316      0.0000
      5 H           4.3463   20.8174   34.2773 H      316  EDO316      0.0000
      6 H           4.1717   20.4430   32.5346 H      316  EDO316      0.0000
      7 H           6.2864   19.8022   34.2897 H      316  EDO316      0.0000
      8 H           5.9155   22.0595   31.9076 H      316  EDO316      0.0000
      9 H           6.4195   22.2905   33.6076 H      316  EDO316      0.0000
     10 H           4.5640   23.4060   33.9979 H      316  EDO316      0.0000
@<TRIPOS>BOND
     1     1     2    1
     2     1     3    1
     3     1     5    1
     4     1     6    1
     5     2     7    1
     6     3     4    1
     7     3     8    1
     8     3     9    1
     9     4    10    1

