@<TRIPOS>MOLECULE
EDO_1_M_201
 10 9 0 0 0
SMALL
NO_CHARGES

@<TRIPOS>ATOM
      1 C1         21.1740    8.0290   39.3870 C.3    201  EDO201      0.0000
      2 O1         21.7230    6.7020   39.4250 O.3    201  EDO201      0.0000
      3 C2         21.7610    8.7770   38.1970 C.3    201  EDO201      0.0000
      4 O2         23.1870    8.5660   38.1380 O.3    201  EDO201      0.0000
      5 H          21.4269    8.5564   40.3314 H      201  EDO201      0.0000
      6 H          20.0672    7.9824   39.3131 H      201  EDO201      0.0000
      7 H          21.3512    6.2504   40.1707 H      201  EDO201      0.0000
      8 H          21.5516    9.8639   38.2679 H      201  EDO201      0.0000
      9 H          21.3057    8.4149   37.2511 H      201  EDO201      0.0000
     10 H          23.3270    7.6462   38.3336 H      201  EDO201      0.0000
@<TRIPOS>BOND
     1     1     2    1
     2     1     3    1
     3     1     5    1
     4     1     6    1
     5     2     7    1
     6     3     4    1
     7     3     8    1
     8     3     9    1
     9     4    10    1

