@<TRIPOS>MOLECULE
TLA_1_A_315
 14 13 0 0 0
SMALL
NO_CHARGES

@<TRIPOS>ATOM
      1 O1         20.3400   -2.5970   25.3110 O.co2  315  TLA315     -0.5000
      2 O11        19.5130   -0.8680   26.4680 O.co2  315  TLA315     -0.5000
      3 C1         19.4120   -1.9460   25.8380 C.2    315  TLA315      0.0000
      4 C2         18.0250   -2.5320   25.6810 C.3    315  TLA315      0.0000
      5 O2         17.0460   -1.5670   26.0280 O.3    315  TLA315      0.0000
      6 C3         17.8530   -3.8190   26.5080 C.3    315  TLA315      0.0000
      7 O3         18.0570   -3.6180   27.9340 O.3    315  TLA315      0.0000
      8 C4         16.4260   -4.3230   26.3090 C.2    315  TLA315      0.0000
      9 O4         16.0790   -4.6690   25.1420 O.co2  315  TLA315     -0.5000
     10 O41        15.7250   -4.3510   27.3540 O.co2  315  TLA315     -0.5000
     11 H          17.8886   -2.7838   24.6057 H      315  TLA315      0.0000
     12 H          17.4375   -0.9073   26.5913 H      315  TLA315      0.0000
     13 H          18.5623   -4.5962   26.1502 H      315  TLA315      0.0000
     14 H          17.2329   -3.3741   28.3415 H      315  TLA315      0.0000
@<TRIPOS>BOND
     1     1     3   ar
     2     2     3   ar
     3     3     4    1
     4     4     5    1
     5     4     6    1
     6     4    11    1
     7     5    12    1
     8     6     7    1
     9     6     8    1
    10     6    13    1
    11     7    14    1
    12     8     9   ar
    13     8    10   ar

