TLA_1_A_315
  -ISIS-            3D

 14 13  0  0  0  0  0  0  0  0  1 V2000
   20.3400   -2.5970   25.3110 O   0  0  0  0  0
   19.5130   -0.8680   26.4680 O   0  0  0  0  0
   19.4120   -1.9460   25.8380 C   0  0  0  0  0
   18.0250   -2.5320   25.6810 C   0  0  0  0  0
   17.0460   -1.5670   26.0280 O   0  0  0  0  0
   17.8530   -3.8190   26.5080 C   0  0  0  0  0
   18.0570   -3.6180   27.9340 O   0  0  0  0  0
   16.4260   -4.3230   26.3090 C   0  0  0  0  0
   16.0790   -4.6690   25.1420 O   0  0  0  0  0
   15.7250   -4.3510   27.3540 O   0  0  0  0  0
   17.8886   -2.7838   24.6057 H   0  0  0  0  0
   17.4375   -0.9073   26.5913 H   0  0  0  0  0
   18.5623   -4.5962   26.1502 H   0  0  0  0  0
   17.2329   -3.3741   28.3415 H   0  0  0  0  0
  1  3  2  0  0  0
  2  3  2  0  0  0
  3  4  1  0  0  0
  4  5  1  0  0  0
  4  6  1  0  0  0
  4 11  1  0  0  0
  5 12  1  0  0  0
  6  7  1  0  0  0
  6  8  1  0  0  0
  6 13  1  0  0  0
  7 14  1  0  0  0
  8  9  2  0  0  0
  8 10  2  0  0  0
M  END
$$$$
