EDO_1_A_101
  -ISIS-            3D

 10  9  0  0  0  0  0  0  0  0  1 V2000
   28.2030  -10.6970    7.0530 C   0  0  0  0  0
   28.6500  -10.4420    8.3890 O   0  0  0  0  0
   26.7140  -10.3870    6.9600 C   0  0  0  0  0
   26.2640  -10.6690    5.6310 O   0  0  0  0  0
   28.4116  -11.7523    6.7774 H   0  0  0  0  0
   28.7783  -10.0528    6.3563 H   0  0  0  0  0
   28.4256  -11.1889    8.9280 H   0  0  0  0  0
   26.5066   -9.3268    7.2168 H   0  0  0  0  0
   26.1406  -11.0185    7.6698 H   0  0  0  0  0
   26.4867   -9.9328    5.0763 H   0  0  0  0  0
  1  2  1  0  0  0
  1  3  1  0  0  0
  1  5  1  0  0  0
  1  6  1  0  0  0
  2  7  1  0  0  0
  3  4  1  0  0  0
  3  8  1  0  0  0
  3  9  1  0  0  0
  4 10  1  0  0  0
M  END
$$$$
