EDO_1_B_301
  -ISIS-            3D

 10  9  0  0  0  0  0  0  0  0  1 V2000
    3.3580  -11.3360    8.9370 C   0  0  0  0  0
    3.2480  -11.3550   10.3590 O   0  0  0  0  0
    1.9950  -11.1100    8.2980 C   0  0  0  0  0
    1.5410   -9.7730    8.5240 O   0  0  0  0  0
    3.7764  -12.3092    8.6056 H   0  0  0  0  0
    4.0780  -10.5507    8.6250 H   0  0  0  0  0
    2.8308  -10.5393   10.6090 H   0  0  0  0  0
    1.2535  -11.8322    8.7005 H   0  0  0  0  0
    2.0634  -11.2868    7.2033 H   0  0  0  0  0
    0.6957   -9.6716    8.1071 H   0  0  0  0  0
  1  2  1  0  0  0
  1  3  1  0  0  0
  1  5  1  0  0  0
  1  6  1  0  0  0
  2  7  1  0  0  0
  3  4  1  0  0  0
  3  8  1  0  0  0
  3  9  1  0  0  0
  4 10  1  0  0  0
M  END
$$$$
