@<TRIPOS>MOLECULE
EDO_1_B_301
 10 9 0 0 0
SMALL
NO_CHARGES

@<TRIPOS>ATOM
      1 C1          3.3580  -11.3360    8.9370 C.3    301  EDO301      0.0000
      2 O1          3.2480  -11.3550   10.3590 O.3    301  EDO301      0.0000
      3 C2          1.9950  -11.1100    8.2980 C.3    301  EDO301      0.0000
      4 O2          1.5410   -9.7730    8.5240 O.3    301  EDO301      0.0000
      5 H           3.7764  -12.3092    8.6056 H      301  EDO301      0.0000
      6 H           4.0780  -10.5507    8.6250 H      301  EDO301      0.0000
      7 H           2.8308  -10.5393   10.6090 H      301  EDO301      0.0000
      8 H           1.2535  -11.8322    8.7005 H      301  EDO301      0.0000
      9 H           2.0634  -11.2868    7.2033 H      301  EDO301      0.0000
     10 H           0.6957   -9.6716    8.1071 H      301  EDO301      0.0000
@<TRIPOS>BOND
     1     1     2    1
     2     1     3    1
     3     1     5    1
     4     1     6    1
     5     2     7    1
     6     3     4    1
     7     3     8    1
     8     3     9    1
     9     4    10    1

