@<TRIPOS>MOLECULE
DMS_1_A_202
 10 9 0 0 0
SMALL
NO_CHARGES

@<TRIPOS>ATOM
      1 S         -44.1060  -25.9500    0.9750 S.o    202  DMS202      0.0000
      2 O         -45.5610  -25.7870    0.6290 O.2    202  DMS202      0.0000
      3 C1        -43.2140  -25.6010   -0.5120 C.3    202  DMS202      0.0000
      4 C2        -43.7870  -27.6890    1.0550 C.3    202  DMS202      0.0000
      5 H         -42.1385  -25.8322   -0.3696 H      202  DMS202      0.0000
      6 H         -43.3181  -24.5244   -0.7582 H      202  DMS202      0.0000
      7 H         -43.6129  -26.2035   -1.3538 H      202  DMS202      0.0000
      8 H         -42.6978  -27.8679    1.1640 H      202  DMS202      0.0000
      9 H         -44.1544  -28.1927    0.1374 H      202  DMS202      0.0000
     10 H         -44.3093  -28.1173    1.9349 H      202  DMS202      0.0000
@<TRIPOS>BOND
     1     1     2    2
     2     1     3    1
     3     1     4    1
     4     3     5    1
     5     3     6    1
     6     3     7    1
     7     4     8    1
     8     4     9    1
     9     4    10    1

