@<TRIPOS>MOLECULE
PF0_1_A_201
 18 18 0 0 0
SMALL
NO_CHARGES

@<TRIPOS>ATOM
      1 C1        -44.5940  -33.0880   -0.9040 C.ar   201  PF0201      0.0000
      2 C2        -45.5840  -33.0680    0.0540 C.ar   201  PF0201      0.0000
      3 C3        -45.3710  -32.3860    1.2580 C.ar   201  PF0201      0.0000
      4 C4        -44.1930  -31.7330    1.5260 C.ar   201  PF0201      0.0000
      5 C5        -43.2070  -31.7790    0.5610 C.ar   201  PF0201      0.0000
      6 C6        -43.4070  -32.4610   -0.6170 C.ar   201  PF0201      0.0000
      7 C7        -41.8620  -31.0830    0.7860 C.3    201  PF0201      0.0000
      8 C8        -43.9920  -30.9550    2.8520 C.2    201  PF0201      0.0000
      9 O1        -43.1630  -31.2570    3.7060 O.co2  201  PF0201     -0.5000
     10 O2        -42.3880  -32.4720   -1.5600 O.3    201  PF0201      0.0000
     11 O3        -44.6650  -29.9410    3.0950 O.co2  201  PF0201     -0.5000
     12 H         -44.7628  -33.6074   -1.8621 H      201  PF0201      0.0000
     13 H         -46.5444  -33.5792   -0.1287 H      201  PF0201      0.0000
     14 H         -46.1807  -32.3729    2.0081 H      201  PF0201      0.0000
     15 H         -41.3859  -30.7601   -0.1652 H      201  PF0201      0.0000
     16 H         -41.1489  -31.7604    1.3064 H      201  PF0201      0.0000
     17 H         -41.9685  -30.1655    1.4046 H      201  PF0201      0.0000
     18 H         -42.6085  -32.9530   -2.3448 H      201  PF0201      0.0000
@<TRIPOS>BOND
     1     1     2   ar
     2     1     6   ar
     3     1    12    1
     4     2     3   ar
     5     2    13    1
     6     3     4   ar
     7     3    14    1
     8     4     5   ar
     9     4     8    1
    10     5     6   ar
    11     5     7    1
    12     6    10    1
    13     7    15    1
    14     7    16    1
    15     7    17    1
    16     8     9   ar
    17     8    11   ar
    18    10    18    1

