DMS_2_A_402
  -ISIS-            3D

 10  9  0  0  0  0  0  0  0  0  1 V2000
   -6.1550   -1.0540    6.3170 S   0  0  0  0  0
   -7.0930   -0.8370    7.4460 O   0  0  0  0  0
   -7.1100   -0.9760    4.8020 C   0  0  0  0  0
   -5.8100   -2.7830    6.2570 C   0  0  0  0  0
   -6.4725   -1.2612    3.9402 H   0  0  0  0  0
   -7.4718    0.0619    4.6525 H   0  0  0  0  0
   -7.9831   -1.6579    4.8608 H   0  0  0  0  0
   -5.2125   -3.0185    5.3527 H   0  0  0  0  0
   -6.7529   -3.3672    6.2394 H   0  0  0  0  0
   -5.2256   -3.0718    7.1545 H   0  0  0  0  0
  1  2  2  0  0  0
  1  3  1  0  0  0
  1  4  1  0  0  0
  3  5  1  0  0  0
  3  6  1  0  0  0
  3  7  1  0  0  0
  4  8  1  0  0  0
  4  9  1  0  0  0
  4 10  1  0  0  0
M  END
$$$$
