@<TRIPOS>MOLECULE
DMS_2_A_402
 10 9 0 0 0
SMALL
NO_CHARGES

@<TRIPOS>ATOM
      1 S          -6.1550   -1.0540    6.3170 S.o    402  DMS402      0.0000
      2 O          -7.0930   -0.8370    7.4460 O.2    402  DMS402      0.0000
      3 C1         -7.1100   -0.9760    4.8020 C.3    402  DMS402      0.0000
      4 C2         -5.8100   -2.7830    6.2570 C.3    402  DMS402      0.0000
      5 H          -6.4725   -1.2612    3.9402 H      402  DMS402      0.0000
      6 H          -7.4718    0.0619    4.6525 H      402  DMS402      0.0000
      7 H          -7.9831   -1.6579    4.8608 H      402  DMS402      0.0000
      8 H          -5.2125   -3.0185    5.3527 H      402  DMS402      0.0000
      9 H          -6.7529   -3.3672    6.2394 H      402  DMS402      0.0000
     10 H          -5.2256   -3.0718    7.1545 H      402  DMS402      0.0000
@<TRIPOS>BOND
     1     1     2    2
     2     1     3    1
     3     1     4    1
     4     3     5    1
     5     3     6    1
     6     3     7    1
     7     4     8    1
     8     4     9    1
     9     4    10    1

