@<TRIPOS>MOLECULE
DMS_2_A_403
 10 9 0 0 0
SMALL
NO_CHARGES

@<TRIPOS>ATOM
      1 S          -2.4620  -18.7210   -8.0830 S.o    403  DMS403      0.0000
      2 O          -3.6920  -18.8290   -8.9790 O.2    403  DMS403      0.0000
      3 C1         -1.1120  -18.3740   -9.1890 C.3    403  DMS403      0.0000
      4 C2         -1.9980  -20.3880   -7.7550 C.3    403  DMS403      0.0000
      5 H          -0.1481  -18.4530   -8.6457 H      403  DMS403      0.0000
      6 H          -1.2167  -17.3412   -9.5794 H      403  DMS403      0.0000
      7 H          -1.1153  -19.0822  -10.0430 H      403  DMS403      0.0000
      8 H          -1.0095  -20.4149   -7.2522 H      403  DMS403      0.0000
      9 H          -1.9496  -20.9741   -8.6959 H      403  DMS403      0.0000
     10 H          -2.7493  -20.8520   -7.0836 H      403  DMS403      0.0000
@<TRIPOS>BOND
     1     1     2    2
     2     1     3    1
     3     1     4    1
     4     3     5    1
     5     3     6    1
     6     3     7    1
     7     4     8    1
     8     4     9    1
     9     4    10    1

