@<TRIPOS>MOLECULE
DMS_2_A_401
 10 9 0 0 0
SMALL
NO_CHARGES

@<TRIPOS>ATOM
      1 S          -6.9720  -28.0070  -21.4540 S.o    401  DMS401      0.0000
      2 O          -7.7740  -27.1130  -22.3310 O.2    401  DMS401      0.0000
      3 C1         -5.7650  -28.7680  -22.5110 C.3    401  DMS401      0.0000
      4 C2         -5.8940  -26.9370  -20.5550 C.3    401  DMS401      0.0000
      5 H          -5.0333  -29.3342  -21.8991 H      401  DMS401      0.0000
      6 H          -5.2316  -27.9985  -23.1060 H      401  DMS401      0.0000
      7 H          -6.2738  -29.4709  -23.2021 H      401  DMS401      0.0000
      8 H          -5.1578  -27.5381  -19.9831 H      401  DMS401      0.0000
      9 H          -6.4889  -26.3294  -19.8427 H      401  DMS401      0.0000
     10 H          -5.3559  -26.2572  -21.2471 H      401  DMS401      0.0000
@<TRIPOS>BOND
     1     1     2    2
     2     1     3    1
     3     1     4    1
     4     3     5    1
     5     3     6    1
     6     3     7    1
     7     4     8    1
     8     4     9    1
     9     4    10    1

