DMS_2_A_402
  -ISIS-            3D

 10  9  0  0  0  0  0  0  0  0  1 V2000
   -6.1380   -1.0030    6.2630 S   0  0  0  0  0
   -7.0490   -0.7780    7.4200 O   0  0  0  0  0
   -7.1630   -0.8700    4.8100 C   0  0  0  0  0
   -5.8640   -2.7470    6.1720 C   0  0  0  0  0
   -6.5843   -1.1692    3.9123 H   0  0  0  0  0
   -7.4912    0.1826    4.6893 H   0  0  0  0  0
   -8.0582   -1.5182    4.9067 H   0  0  0  0  0
   -5.3171   -2.9953    5.2395 H   0  0  0  0  0
   -6.8292   -3.2937    6.1909 H   0  0  0  0  0
   -5.2523   -3.0677    7.0399 H   0  0  0  0  0
  1  2  2  0  0  0
  1  3  1  0  0  0
  1  4  1  0  0  0
  3  5  1  0  0  0
  3  6  1  0  0  0
  3  7  1  0  0  0
  4  8  1  0  0  0
  4  9  1  0  0  0
  4 10  1  0  0  0
M  END
$$$$
