DMS_1_A_403
  -ISIS-            3D

 10  9  0  0  0  0  0  0  0  0  1 V2000
    2.4010  -18.9790    8.0400 S   0  0  0  0  0
    3.6320  -18.8420    8.9190 O   0  0  0  0  0
    1.0920  -18.1810    8.9490 C   0  0  0  0  0
    1.8470  -20.6420    8.3010 C   0  0  0  0  0
    0.1166  -18.3849    8.4618 H   0  0  0  0  0
    1.2666  -17.0856    8.9545 H   0  0  0  0  0
    1.0668  -18.5473    9.9958 H   0  0  0  0  0
    0.8522  -20.7863    7.8322 H   0  0  0  0  0
    1.7799  -20.8646    9.3857 H   0  0  0  0  0
    2.5664  -21.3450    7.8335 H   0  0  0  0  0
  1  2  2  0  0  0
  1  3  1  0  0  0
  1  4  1  0  0  0
  3  5  1  0  0  0
  3  6  1  0  0  0
  3  7  1  0  0  0
  4  8  1  0  0  0
  4  9  1  0  0  0
  4 10  1  0  0  0
M  END
$$$$
