@<TRIPOS>MOLECULE
DMS_2_A_403
 10 9 0 0 0
SMALL
NO_CHARGES

@<TRIPOS>ATOM
      1 S          -2.4010  -18.9790   -8.0400 S.o    403  DMS403      0.0000
      2 O          -3.6320  -18.8420   -8.9190 O.2    403  DMS403      0.0000
      3 C1         -1.0920  -18.1810   -8.9490 C.3    403  DMS403      0.0000
      4 C2         -1.8470  -20.6420   -8.3010 C.3    403  DMS403      0.0000
      5 H          -0.1166  -18.3849   -8.4618 H      403  DMS403      0.0000
      6 H          -1.2666  -17.0856   -8.9545 H      403  DMS403      0.0000
      7 H          -1.0668  -18.5473   -9.9958 H      403  DMS403      0.0000
      8 H          -0.8522  -20.7863   -7.8322 H      403  DMS403      0.0000
      9 H          -1.7799  -20.8646   -9.3857 H      403  DMS403      0.0000
     10 H          -2.5664  -21.3450   -7.8335 H      403  DMS403      0.0000
@<TRIPOS>BOND
     1     1     2    2
     2     1     3    1
     3     1     4    1
     4     3     5    1
     5     3     6    1
     6     3     7    1
     7     4     8    1
     8     4     9    1
     9     4    10    1

