CFF_1_A_402
  -ISIS-            3D

 24 25  0  0  0  0  0  0  0  0  1 V2000
   53.5450  -32.7970   21.1700 N   0  0  0  0  0
   52.1470  -32.3520   21.1820 C   0  0  0  0  0
   53.9930  -34.1740   21.1860 C   0  0  0  0  0
   54.5790  -31.8660   21.1710 C   0  0  0  0  0
   51.8300  -30.9060   21.1900 N   0  0  0  0  0
   51.2580  -33.1570   21.1840 O   0  0  0  0  0
   50.4780  -30.3950   21.1740 C   0  0  0  0  0
   52.9320  -29.9390   21.1660 C   0  0  0  0  0
   54.2380  -30.3940   21.1830 C   0  0  0  0  0
   52.9480  -28.5840   21.1590 N   0  0  0  0  0
   55.6870  -32.3010   21.1760 O   0  0  0  0  0
   55.0250  -29.3020   21.1720 N   0  0  0  0  0
   54.2320  -28.2170   21.1650 C   0  0  0  0  0
   56.4780  -29.3180   21.1660 C   0  0  0  0  0
   54.6074  -34.4242   20.2919 H   0  0  0  0  0
   53.1368  -34.8837   21.1841 H   0  0  0  0  0
   54.5910  -34.4084   22.0954 H   0  0  0  0  0
   50.2845  -29.7365   22.0498 H   0  0  0  0  0
   49.7171  -31.2048   21.2033 H   0  0  0  0  0
   50.2825  -29.7977   20.2558 H   0  0  0  0  0
   54.6514  -27.2031   21.1588 H   0  0  0  0  0
   56.9078  -28.2925   21.1762 H   0  0  0  0  0
   56.8721  -29.8283   20.2597 H   0  0  0  0  0
   56.8802  -29.8488   22.0568 H   0  0  0  0  0
  1  2  1  0  0  0
  1  3  1  0  0  0
  1  4  1  0  0  0
  2  5  1  0  0  0
  2  6  2  0  0  0
  3 15  1  0  0  0
  3 16  1  0  0  0
  3 17  1  0  0  0
  4  9  1  0  0  0
  4 11  2  0  0  0
  5  7  1  0  0  0
  5  8  1  0  0  0
  7 18  1  0  0  0
  7 19  1  0  0  0
  7 20  1  0  0  0
  8  9  2  0  0  0
  8 10  1  0  0  0
  9 12  1  0  0  0
 10 13  2  0  0  0
 12 13  1  0  0  0
 12 14  1  0  0  0
 13 21  1  0  0  0
 14 22  1  0  0  0
 14 23  1  0  0  0
 14 24  1  0  0  0
M  END
$$$$
