@<TRIPOS>MOLECULE
CFF_1_A_402
 24 25 0 0 0
SMALL
NO_CHARGES

@<TRIPOS>ATOM
      1 N1         53.5450  -32.7970   21.1700 N.ar   402  CFF402      0.0000
      2 C2         52.1470  -32.3520   21.1820 C.ar   402  CFF402      0.0000
      3 C10        53.9930  -34.1740   21.1860 C.3    402  CFF402      0.0000
      4 C6         54.5790  -31.8660   21.1710 C.ar   402  CFF402      0.0000
      5 N3         51.8300  -30.9060   21.1900 N.ar   402  CFF402      0.0000
      6 O11        51.2580  -33.1570   21.1840 O.2    402  CFF402      0.0000
      7 C12        50.4780  -30.3950   21.1740 C.3    402  CFF402      0.0000
      8 C4         52.9320  -29.9390   21.1660 C.ar   402  CFF402      0.0000
      9 C5         54.2380  -30.3940   21.1830 C.ar   402  CFF402      0.0000
     10 N9         52.9480  -28.5840   21.1590 N.ar   402  CFF402      0.0000
     11 O13        55.6870  -32.3010   21.1760 O.2    402  CFF402      0.0000
     12 N7         55.0250  -29.3020   21.1720 N.ar   402  CFF402      0.0000
     13 C8         54.2320  -28.2170   21.1650 C.ar   402  CFF402      0.0000
     14 C14        56.4780  -29.3180   21.1660 C.3    402  CFF402      0.0000
     15 H          54.6074  -34.4242   20.2919 H      402  CFF402      0.0000
     16 H          53.1368  -34.8837   21.1841 H      402  CFF402      0.0000
     17 H          54.5910  -34.4084   22.0954 H      402  CFF402      0.0000
     18 H          50.2845  -29.7365   22.0498 H      402  CFF402      0.0000
     19 H          49.7171  -31.2048   21.2033 H      402  CFF402      0.0000
     20 H          50.2825  -29.7977   20.2558 H      402  CFF402      0.0000
     21 H          54.6514  -27.2031   21.1588 H      402  CFF402      0.0000
     22 H          56.9078  -28.2925   21.1762 H      402  CFF402      0.0000
     23 H          56.8721  -29.8283   20.2597 H      402  CFF402      0.0000
     24 H          56.8802  -29.8488   22.0568 H      402  CFF402      0.0000
@<TRIPOS>BOND
     1     1     2   ar
     2     1     3    1
     3     1     4   ar
     4     2     5   ar
     5     2     6    2
     6     3    15    1
     7     3    16    1
     8     3    17    1
     9     4     9   ar
    10     4    11    2
    11     5     7    1
    12     5     8   ar
    13     7    18    1
    14     7    19    1
    15     7    20    1
    16     8     9   ar
    17     8    10   ar
    18     9    12   ar
    19    10    13   ar
    20    12    13   ar
    21    12    14    1
    22    13    21    1
    23    14    22    1
    24    14    23    1
    25    14    24    1

