EDO_1_A_408
  -ISIS-            3D

 10  9  0  0  0  0  0  0  0  0  1 V2000
   56.9880  -12.6230  -19.5980 C   0  0  0  0  0
   57.1570  -11.3550  -20.2800 O   0  0  0  0  0
   56.6310  -13.8080  -20.5240 C   0  0  0  0  0
   57.5660  -14.0250  -21.6380 O   0  0  0  0  0
   56.2006  -12.5019  -18.8252 H   0  0  0  0  0
   57.9280  -12.8552  -19.0538 H   0  0  0  0  0
   57.6776  -11.5377  -21.0530 H   0  0  0  0  0
   55.6167  -13.6404  -20.9454 H   0  0  0  0  0
   56.5738  -14.7388  -19.9202 H   0  0  0  0  0
   57.2542  -14.7665  -22.1394 H   0  0  0  0  0
  1  2  1  0  0  0
  1  3  1  0  0  0
  1  5  1  0  0  0
  1  6  1  0  0  0
  2  7  1  0  0  0
  3  4  1  0  0  0
  3  8  1  0  0  0
  3  9  1  0  0  0
  4 10  1  0  0  0
M  END
$$$$
