@<TRIPOS>MOLECULE
EDO_1_A_403
 10 9 0 0 0
SMALL
NO_CHARGES

@<TRIPOS>ATOM
      1 C1         60.4440  -29.5200   10.6810 C.3    403  EDO403      0.0000
      2 O1         61.4400  -30.3520   10.0680 O.3    403  EDO403      0.0000
      3 C2         60.3360  -28.2040    9.9010 C.3    403  EDO403      0.0000
      4 O2         61.5890  -27.5020    9.9870 O.3    403  EDO403      0.0000
      5 H          60.7324  -29.3251   11.7347 H      403  EDO403      0.0000
      6 H          59.4664  -30.0466   10.7008 H      403  EDO403      0.0000
      7 H          61.0209  -30.8866    9.4066 H      403  EDO403      0.0000
      8 H          59.5359  -27.5643   10.3270 H      403  EDO403      0.0000
      9 H          60.0825  -28.3894    8.8364 H      403  EDO403      0.0000
     10 H          62.2693  -28.1450    9.8228 H      403  EDO403      0.0000
@<TRIPOS>BOND
     1     1     2    1
     2     1     3    1
     3     1     5    1
     4     1     6    1
     5     2     7    1
     6     3     4    1
     7     3     8    1
     8     3     9    1
     9     4    10    1

