@<TRIPOS>MOLECULE
EDO_1_A_407
 10 9 0 0 0
SMALL
NO_CHARGES

@<TRIPOS>ATOM
      1 C1         61.9110  -46.8530   -5.4460 C.3    407  EDO407      0.0000
      2 O1         61.4120  -45.5570   -5.8260 O.3    407  EDO407      0.0000
      3 C2         62.6970  -47.5150   -6.5780 C.3    407  EDO407      0.0000
      4 O2         61.9040  -48.1330   -7.6380 O.3    407  EDO407      0.0000
      5 H          61.0687  -47.5009   -5.1252 H      407  EDO407      0.0000
      6 H          62.5680  -46.7196   -4.5611 H      407  EDO407      0.0000
      7 H          60.8387  -45.6880   -6.5707 H      407  EDO407      0.0000
      8 H          63.3433  -48.3054   -6.1378 H      407  EDO407      0.0000
      9 H          63.3871  -46.7717   -7.0314 H      407  EDO407      0.0000
     10 H          62.5014  -48.5002   -8.2757 H      407  EDO407      0.0000
@<TRIPOS>BOND
     1     1     2    1
     2     1     3    1
     3     1     5    1
     4     1     6    1
     5     2     7    1
     6     3     4    1
     7     3     8    1
     8     3     9    1
     9     4    10    1

