@<TRIPOS>MOLECULE
EDO_1_A_406
 10 9 0 0 0
SMALL
NO_CHARGES

@<TRIPOS>ATOM
      1 C1         48.0950  -69.4060   -9.9520 C.3    406  EDO406      0.0000
      2 O1         46.6540  -69.4030   -9.9400 O.3    406  EDO406      0.0000
      3 C2         48.6500  -68.2330  -10.7760 C.3    406  EDO406      0.0000
      4 O2         49.9430  -68.5130  -11.3520 O.3    406  EDO406      0.0000
      5 H          48.4416  -70.3643  -10.3943 H      406  EDO406      0.0000
      6 H          48.4831  -69.3650   -8.9127 H      406  EDO406      0.0000
      7 H          46.3625  -70.1624   -9.4530 H      406  EDO406      0.0000
      8 H          48.7114  -67.3215  -10.1448 H      406  EDO406      0.0000
      9 H          47.9449  -68.0038  -11.6037 H      406  EDO406      0.0000
     10 H          50.2017  -67.7640  -11.8724 H      406  EDO406      0.0000
@<TRIPOS>BOND
     1     1     2    1
     2     1     3    1
     3     1     5    1
     4     1     6    1
     5     2     7    1
     6     3     4    1
     7     3     8    1
     8     3     9    1
     9     4    10    1

