EDO_1_A_407
  -ISIS-            3D

 10  9  0  0  0  0  0  0  0  0  1 V2000
   61.9110  -46.8530   -5.4460 C   0  0  0  0  0
   61.4120  -45.5570   -5.8260 O   0  0  0  0  0
   62.6970  -47.5150   -6.5780 C   0  0  0  0  0
   61.9040  -48.1330   -7.6380 O   0  0  0  0  0
   61.0687  -47.5009   -5.1252 H   0  0  0  0  0
   62.5680  -46.7196   -4.5611 H   0  0  0  0  0
   60.8387  -45.6880   -6.5707 H   0  0  0  0  0
   63.3433  -48.3054   -6.1378 H   0  0  0  0  0
   63.3871  -46.7717   -7.0314 H   0  0  0  0  0
   62.5014  -48.5002   -8.2757 H   0  0  0  0  0
  1  2  1  0  0  0
  1  3  1  0  0  0
  1  5  1  0  0  0
  1  6  1  0  0  0
  2  7  1  0  0  0
  3  4  1  0  0  0
  3  8  1  0  0  0
  3  9  1  0  0  0
  4 10  1  0  0  0
M  END
$$$$
