@<TRIPOS>MOLECULE
EDO_1_A_404
 10 9 0 0 0
SMALL
NO_CHARGES

@<TRIPOS>ATOM
      1 C1         70.4190  -10.1920  -20.2480 C.3    404  EDO404      0.0000
      2 O1         71.4620  -11.1450  -20.4960 O.3    404  EDO404      0.0000
      3 C2         70.7870   -8.7840  -20.6930 C.3    404  EDO404      0.0000
      4 O2         69.8760   -7.9120  -20.0040 O.3    404  EDO404      0.0000
      5 H          70.1804  -10.2042  -19.1625 H      404  EDO404      0.0000
      6 H          69.5007  -10.5264  -20.7743 H      404  EDO404      0.0000
      7 H          72.1028  -11.0733  -19.8010 H      404  EDO404      0.0000
      8 H          70.6889   -8.6676  -21.7922 H      404  EDO404      0.0000
      9 H          71.8284   -8.5329  -20.4020 H      404  EDO404      0.0000
     10 H          70.0350   -7.0253  -20.3000 H      404  EDO404      0.0000
@<TRIPOS>BOND
     1     1     2    1
     2     1     3    1
     3     1     5    1
     4     1     6    1
     5     2     7    1
     6     3     4    1
     7     3     8    1
     8     3     9    1
     9     4    10    1

