@<TRIPOS>MOLECULE
DMS_2_A_402
 10 9 0 0 0
SMALL
NO_CHARGES

@<TRIPOS>ATOM
      1 S          -6.1100   -1.0760    6.2590 S.o    402  DMS402      0.0000
      2 O          -7.0990   -0.7990    7.3390 O.2    402  DMS402      0.0000
      3 C1         -7.0160   -1.0440    4.7290 C.3    402  DMS402      0.0000
      4 C2         -5.7960   -2.8130    6.2920 C.3    402  DMS402      0.0000
      5 H          -6.3631   -1.3783    3.8971 H      402  DMS402      0.0000
      6 H          -7.3514   -0.0067    4.5248 H      402  DMS402      0.0000
      7 H          -7.9052   -1.7048    4.7908 H      402  DMS402      0.0000
      8 H          -5.1741   -3.1014    5.4201 H      402  DMS402      0.0000
      9 H          -6.7488   -3.3813    6.2705 H      402  DMS402      0.0000
     10 H          -5.2465   -3.0682    7.2210 H      402  DMS402      0.0000
@<TRIPOS>BOND
     1     1     2    2
     2     1     3    1
     3     1     4    1
     4     3     5    1
     5     3     6    1
     6     3     7    1
     7     4     8    1
     8     4     9    1
     9     4    10    1

