DMS_2_A_403
  -ISIS-            3D

 10  9  0  0  0  0  0  0  0  0  1 V2000
   -2.5880  -18.6710   -8.0050 S   0  0  0  0  0
   -3.7620  -18.8740   -8.9490 O   0  0  0  0  0
   -1.2780  -17.9720   -8.9670 C   0  0  0  0  0
   -1.8860  -20.2690   -7.7640 C   0  0  0  0  0
   -0.3464  -17.9358   -8.3661 H   0  0  0  0  0
   -1.5521  -16.9388   -9.2634 H   0  0  0  0  0
   -1.1045  -18.5750   -9.8818 H   0  0  0  0  0
   -0.9386  -20.1834   -7.1936 H   0  0  0  0  0
   -1.6858  -20.7568   -8.7400 H   0  0  0  0  0
   -2.5940  -20.8978   -7.1863 H   0  0  0  0  0
  1  2  2  0  0  0
  1  3  1  0  0  0
  1  4  1  0  0  0
  3  5  1  0  0  0
  3  6  1  0  0  0
  3  7  1  0  0  0
  4  8  1  0  0  0
  4  9  1  0  0  0
  4 10  1  0  0  0
M  END
$$$$
