DMS_2_A_404
  -ISIS-            3D

 10  9  0  0  0  0  0  0  0  0  1 V2000
  -20.7170  -15.5620   -4.7190 S   0  0  0  0  0
  -20.0360  -16.4850   -5.6940 O   0  0  0  0  0
  -20.8110  -16.4490   -3.1830 C   0  0  0  0  0
  -22.4420  -15.5960   -5.1290 C   0  0  0  0  0
  -21.4292  -15.8813   -2.4580 H   0  0  0  0  0
  -19.7900  -16.5686   -2.7662 H   0  0  0  0  0
  -21.2560  -17.4528   -3.3424 H   0  0  0  0  0
  -23.0227  -15.0479   -4.3593 H   0  0  0  0  0
  -22.8049  -16.6427   -5.1902 H   0  0  0  0  0
  -22.5950  -15.1030   -6.1108 H   0  0  0  0  0
  1  2  2  0  0  0
  1  3  1  0  0  0
  1  4  1  0  0  0
  3  5  1  0  0  0
  3  6  1  0  0  0
  3  7  1  0  0  0
  4  8  1  0  0  0
  4  9  1  0  0  0
  4 10  1  0  0  0
M  END
$$$$
