DMS_2_A_401
  -ISIS-            3D

 10  9  0  0  0  0  0  0  0  0  1 V2000
   -7.2380  -28.3910  -21.4430 S   0  0  0  0  0
   -8.1620  -27.4510  -22.1370 O   0  0  0  0  0
   -6.0240  -28.8620  -22.6340 C   0  0  0  0  0
   -6.1910  -27.4060  -20.4140 C   0  0  0  0  0
   -5.2260  -29.4573  -22.1449 H   0  0  0  0  0
   -5.5766  -27.9648  -23.1089 H   0  0  0  0  0
   -6.5016  -29.4837  -23.4188 H   0  0  0  0  0
   -5.3903  -28.0366  -19.9763 H   0  0  0  0  0
   -6.7920  -26.9702  -19.5898 H   0  0  0  0  0
   -5.7338  -26.5825  -21.0002 H   0  0  0  0  0
  1  2  2  0  0  0
  1  3  1  0  0  0
  1  4  1  0  0  0
  3  5  1  0  0  0
  3  6  1  0  0  0
  3  7  1  0  0  0
  4  8  1  0  0  0
  4  9  1  0  0  0
  4 10  1  0  0  0
M  END
$$$$
