3TR_1_A_402
  -ISIS-            3D

 10 10  0  0  0  0  0  0  0  0  1 V2000
   -5.6000   15.6280   -1.1300 N   0  0  0  0  0
   -6.7970   14.9570   -0.8850 N   0  0  0  0  0
   -6.7870   14.5730    0.3980 C   0  0  0  0  0
   -5.6210   14.9670    1.0080 N   0  0  0  0  0
   -4.8940   15.6140    0.0740 C   0  0  0  0  0
   -7.7640   13.9180    1.0460 N   0  0  0  0  0
   -5.3198   16.0399   -2.0266 H   0  0  0  0  0
   -3.9018   16.0585    0.2372 H   0  0  0  0  0
   -7.5789   13.7149    2.0360 H   0  0  0  0  0
   -8.6011   13.6810    0.4989 H   0  0  0  0  0
  1  2  1  0  0  0
  1  5  1  0  0  0
  1  7  1  0  0  0
  2  3  2  0  0  0
  3  4  1  0  0  0
  3  6  1  0  0  0
  4  5  2  0  0  0
  5  8  1  0  0  0
  6  9  1  0  0  0
  6 10  1  0  0  0
M  END
$$$$
