@<TRIPOS>MOLECULE
3TR_1_A_402
 10 10 0 0 0
SMALL
NO_CHARGES

@<TRIPOS>ATOM
      1 N1         -5.6000   15.6280   -1.1300 N.ar   402  3TR402      0.0000
      2 N2         -6.7970   14.9570   -0.8850 N.ar   402  3TR402      0.0000
      3 C3         -6.7870   14.5730    0.3980 C.ar   402  3TR402      0.0000
      4 N4         -5.6210   14.9670    1.0080 N.ar   402  3TR402      0.0000
      5 C5         -4.8940   15.6140    0.0740 C.ar   402  3TR402      0.0000
      6 N3A        -7.7640   13.9180    1.0460 N.pl3  402  3TR402      0.0000
      7 H          -5.3198   16.0399   -2.0266 H      402  3TR402      0.0000
      8 H          -3.9018   16.0585    0.2372 H      402  3TR402      0.0000
      9 H          -7.5789   13.7149    2.0360 H      402  3TR402      0.0000
     10 H          -8.6011   13.6810    0.4989 H      402  3TR402      0.0000
@<TRIPOS>BOND
     1     1     2   ar
     2     1     5   ar
     3     1     7    1
     4     2     3   ar
     5     3     4   ar
     6     3     6    1
     7     4     5   ar
     8     5     8    1
     9     6     9    1
    10     6    10    1

