@<TRIPOS>MOLECULE
DMS_1_A_403
 10 9 0 0 0
SMALL
NO_CHARGES

@<TRIPOS>ATOM
      1 S          -0.5240    9.2900   -8.1430 S.o    403  DMS403      0.0000
      2 O          -0.1960   10.5780   -7.4460 O.2    403  DMS403      0.0000
      3 C1         -2.0890    8.7490   -7.5780 C.3    403  DMS403      0.0000
      4 C2          0.4320    8.1270   -7.3050 C.3    403  DMS403      0.0000
      5 H          -2.2887    7.7192   -7.9384 H      403  DMS403      0.0000
      6 H          -2.8748    9.4220   -7.9777 H      403  DMS403      0.0000
      7 H          -2.1342    8.7672   -6.4697 H      403  DMS403      0.0000
      8 H           0.1769    7.1036   -7.6487 H      403  DMS403      0.0000
      9 H           0.2700    8.1949   -6.2091 H      403  DMS403      0.0000
     10 H           1.5056    8.3090   -7.5169 H      403  DMS403      0.0000
@<TRIPOS>BOND
     1     1     2    2
     2     1     3    1
     3     1     4    1
     4     3     5    1
     5     3     6    1
     6     3     7    1
     7     4     8    1
     8     4     9    1
     9     4    10    1

