DMS_1_A_403
  -ISIS-            3D

 10  9  0  0  0  0  0  0  0  0  1 V2000
   -0.5240    9.2900   -8.1430 S   0  0  0  0  0
   -0.1960   10.5780   -7.4460 O   0  0  0  0  0
   -2.0890    8.7490   -7.5780 C   0  0  0  0  0
    0.4320    8.1270   -7.3050 C   0  0  0  0  0
   -2.2887    7.7192   -7.9384 H   0  0  0  0  0
   -2.8748    9.4220   -7.9777 H   0  0  0  0  0
   -2.1342    8.7672   -6.4697 H   0  0  0  0  0
    0.1769    7.1036   -7.6487 H   0  0  0  0  0
    0.2700    8.1949   -6.2091 H   0  0  0  0  0
    1.5056    8.3090   -7.5169 H   0  0  0  0  0
  1  2  2  0  0  0
  1  3  1  0  0  0
  1  4  1  0  0  0
  3  5  1  0  0  0
  3  6  1  0  0  0
  3  7  1  0  0  0
  4  8  1  0  0  0
  4  9  1  0  0  0
  4 10  1  0  0  0
M  END
$$$$
