@<TRIPOS>MOLECULE
DMS_1_A_503
 10 9 0 0 0
SMALL
NO_CHARGES

@<TRIPOS>ATOM
      1 S          -0.7290    9.4450   -7.1280 S.o    503  DMS503      0.0000
      2 O           0.0350    8.1910   -7.0550 O.2    503  DMS503      0.0000
      3 C1         -2.3740    8.9590   -6.7860 C.3    503  DMS503      0.0000
      4 C2         -1.0180    9.6990   -8.8340 C.3    503  DMS503      0.0000
      5 H          -3.0716    9.7963   -6.9929 H      503  DMS503      0.0000
      6 H          -2.4600    8.6906   -5.7130 H      503  DMS503      0.0000
      7 H          -2.6649    8.0780   -7.3944 H      503  DMS503      0.0000
      8 H          -1.7509   10.5187   -8.9805 H      503  DMS503      0.0000
      9 H          -1.3970    8.7747   -9.3165 H      503  DMS503      0.0000
     10 H          -0.0670    9.9890   -9.3260 H      503  DMS503      0.0000
@<TRIPOS>BOND
     1     1     2    2
     2     1     3    1
     3     1     4    1
     4     3     5    1
     5     3     6    1
     6     3     7    1
     7     4     8    1
     8     4     9    1
     9     4    10    1

