DMS_1_A_502
  -ISIS-            3D

 10  9  0  0  0  0  0  0  0  0  1 V2000
  -12.5890   23.8820   11.2860 S   0  0  0  0  0
  -12.4860   23.1420   10.0270 O   0  0  0  0  0
  -13.7510   22.9580   12.2100 C   0  0  0  0  0
  -11.2500   23.3500   12.2740 C   0  0  0  0  0
  -13.7865   23.3213   13.2588 H   0  0  0  0  0
  -13.5035   21.8772   12.2015 H   0  0  0  0  0
  -14.7589   23.0905   11.7633 H   0  0  0  0  0
  -11.3702   23.7147   13.3156 H   0  0  0  0  0
  -10.3077   23.7713   11.8653 H   0  0  0  0  0
  -11.1668   22.2451   12.2759 H   0  0  0  0  0
  1  2  2  0  0  0
  1  3  1  0  0  0
  1  4  1  0  0  0
  3  5  1  0  0  0
  3  6  1  0  0  0
  3  7  1  0  0  0
  4  8  1  0  0  0
  4  9  1  0  0  0
  4 10  1  0  0  0
M  END
$$$$
