@<TRIPOS>MOLECULE
DMS_1_A_502
 10 9 0 0 0
SMALL
NO_CHARGES

@<TRIPOS>ATOM
      1 S         -12.5890   23.8820   11.2860 S.o    502  DMS502      0.0000
      2 O         -12.4860   23.1420   10.0270 O.2    502  DMS502      0.0000
      3 C1        -13.7510   22.9580   12.2100 C.3    502  DMS502      0.0000
      4 C2        -11.2500   23.3500   12.2740 C.3    502  DMS502      0.0000
      5 H         -13.7865   23.3213   13.2588 H      502  DMS502      0.0000
      6 H         -13.5035   21.8772   12.2015 H      502  DMS502      0.0000
      7 H         -14.7589   23.0905   11.7633 H      502  DMS502      0.0000
      8 H         -11.3702   23.7147   13.3156 H      502  DMS502      0.0000
      9 H         -10.3077   23.7713   11.8653 H      502  DMS502      0.0000
     10 H         -11.1668   22.2451   12.2759 H      502  DMS502      0.0000
@<TRIPOS>BOND
     1     1     2    2
     2     1     3    1
     3     1     4    1
     4     3     5    1
     5     3     6    1
     6     3     7    1
     7     4     8    1
     8     4     9    1
     9     4    10    1

