@<TRIPOS>MOLECULE
EDO_1_A_402
 10 9 0 0 0
SMALL
NO_CHARGES

@<TRIPOS>ATOM
      1 C1          5.2980  -42.2610    7.3980 C.3    402  EDO402      0.0000
      2 O1          5.4330  -42.3370    5.9830 O.3    402  EDO402      0.0000
      3 C2          3.8540  -41.8640    7.7370 C.3    402  EDO402      0.0000
      4 O2          3.6650  -40.4510    7.5870 O.3    402  EDO402      0.0000
      5 H           6.0213  -41.5312    7.8180 H      402  EDO402      0.0000
      6 H           5.5286  -43.2545    7.8382 H      402  EDO402      0.0000
      7 H           6.3238  -42.5919    5.7820 H      402  EDO402      0.0000
      8 H           3.6326  -42.1293    8.7919 H      402  EDO402      0.0000
      9 H           3.1255  -42.4161    7.1072 H      402  EDO402      0.0000
     10 H           3.8501  -40.2463    6.6790 H      402  EDO402      0.0000
@<TRIPOS>BOND
     1     1     2    1
     2     1     3    1
     3     1     5    1
     4     1     6    1
     5     2     7    1
     6     3     4    1
     7     3     8    1
     8     3     9    1
     9     4    10    1

