@<TRIPOS>MOLECULE
EXB_1_A_201
 23 24 0 0 0
SMALL
NO_CHARGES

@<TRIPOS>ATOM
      1 C2        -43.6250  -33.5000   -1.9770 C.ar   201  EXB201      0.0000
      2 C5        -45.7140  -35.3030   -1.5720 C.ar   201  EXB201      0.0000
      3 C4        -44.7800  -35.5350   -2.5530 C.ar   201  EXB201      0.0000
      4 C3        -43.7370  -34.6360   -2.7570 C.ar   201  EXB201      0.0000
      5 C6        -45.6020  -34.1410   -0.7970 C.ar   201  EXB201      0.0000
      6 C11       -42.6550  -31.5160    0.8980 C.3    201  EXB201      0.0000
      7 C10       -43.8980  -31.0980    0.0950 C.3    201  EXB201      0.0000
      8 N9        -44.7550  -32.2520   -0.1060 N.ar   201  EXB201      0.0000
      9 C1        -44.5710  -33.2490   -0.9890 C.ar   201  EXB201      0.0000
     10 C8        -45.8260  -32.5290    0.5870 C.ar   201  EXB201      0.0000
     11 N7        -46.3530  -33.6630    0.1750 N.ar   201  EXB201      0.0000
     12 C12       -42.9070  -32.1650    2.2730 C.2    201  EXB201      0.0000
     13 O         -43.1340  -33.3970    2.3730 O.co2  201  EXB201     -0.5000
     14 OXT       -42.8840  -31.4520    3.3120 O.co2  201  EXB201     -0.5000
     15 H         -42.7949  -32.7949   -2.1445 H      201  EXB201      0.0000
     16 H         -46.5414  -36.0097   -1.3964 H      201  EXB201      0.0000
     17 H         -44.8551  -36.4392   -3.1808 H      201  EXB201      0.0000
     18 H         -42.9926  -34.8339   -3.5470 H      201  EXB201      0.0000
     19 H         -42.0144  -30.6158    1.0472 H      201  EXB201      0.0000
     20 H         -42.0418  -32.2166    0.2858 H      201  EXB201      0.0000
     21 H         -43.6196  -30.6784   -0.8978 H      201  EXB201      0.0000
     22 H         -44.4708  -30.3133    0.6389 H      201  EXB201      0.0000
     23 H         -46.3054  -31.9803    1.4084 H      201  EXB201      0.0000
@<TRIPOS>BOND
     1     1     4   ar
     2     1     9   ar
     3     1    15    1
     4     2     3   ar
     5     2     5   ar
     6     2    16    1
     7     3     4   ar
     8     3    17    1
     9     4    18    1
    10     5     9   ar
    11     5    11   ar
    12     6     7    1
    13     6    12    1
    14     6    19    1
    15     6    20    1
    16     7     8    1
    17     7    21    1
    18     7    22    1
    19     8     9   ar
    20     8    10   ar
    21    10    11   ar
    22    10    23    1
    23    12    13   ar
    24    12    14   ar

