@<TRIPOS>MOLECULE
DMS_1_A_202
 10 9 0 0 0
SMALL
NO_CHARGES

@<TRIPOS>ATOM
      1 S         -45.6910  -34.6110   -1.9770 S.o    202  DMS202      0.0000
      2 O         -45.1940  -33.3030   -1.4260 O.2    202  DMS202      0.0000
      3 C1        -44.5280  -35.8000   -1.3930 C.3    202  DMS202      0.0000
      4 C2        -45.2250  -34.6700   -3.6870 C.3    202  DMS202      0.0000
      5 H         -44.7263  -36.7851   -1.8626 H      202  DMS202      0.0000
      6 H         -44.6302  -35.9041   -0.2934 H      202  DMS202      0.0000
      7 H         -43.4914  -35.4811   -1.6288 H      202  DMS202      0.0000
      8 H         -45.4198  -35.6822   -4.0966 H      202  DMS202      0.0000
      9 H         -44.1499  -34.4229   -3.8056 H      202  DMS202      0.0000
     10 H         -45.8280  -33.9329   -4.2555 H      202  DMS202      0.0000
@<TRIPOS>BOND
     1     1     2    2
     2     1     3    1
     3     1     4    1
     4     3     5    1
     5     3     6    1
     6     3     7    1
     7     4     8    1
     8     4     9    1
     9     4    10    1

