DMS_1_A_202
  -ISIS-            3D

 10  9  0  0  0  0  0  0  0  0  1 V2000
  -45.6910  -34.6110   -1.9770 S   0  0  0  0  0
  -45.1940  -33.3030   -1.4260 O   0  0  0  0  0
  -44.5280  -35.8000   -1.3930 C   0  0  0  0  0
  -45.2250  -34.6700   -3.6870 C   0  0  0  0  0
  -44.7263  -36.7851   -1.8626 H   0  0  0  0  0
  -44.6302  -35.9041   -0.2934 H   0  0  0  0  0
  -43.4914  -35.4811   -1.6288 H   0  0  0  0  0
  -45.4198  -35.6822   -4.0966 H   0  0  0  0  0
  -44.1499  -34.4229   -3.8056 H   0  0  0  0  0
  -45.8280  -33.9329   -4.2555 H   0  0  0  0  0
  1  2  2  0  0  0
  1  3  1  0  0  0
  1  4  1  0  0  0
  3  5  1  0  0  0
  3  6  1  0  0  0
  3  7  1  0  0  0
  4  8  1  0  0  0
  4  9  1  0  0  0
  4 10  1  0  0  0
M  END
$$$$
