@<TRIPOS>MOLECULE
DMS_1_A_1005
 10 9 0 0 0
SMALL
NO_CHARGES

@<TRIPOS>ATOM
      1 S          21.0810   14.1120    8.1520 S.o   1005  DMS1005      0.0000
      2 O          22.3210   14.8720    7.9530 O.2   1005  DMS1005      0.0000
      3 C1         21.4710   12.9290    9.4090 C.3   1005  DMS1005      0.0000
      4 C2         20.9790   13.0190    6.7620 C.3   1005  DMS1005      0.0000
      5 H          20.6369   12.2057    9.5155 H     1005  DMS1005      0.0000
      6 H          21.6155   13.4531   10.3758 H     1005  DMS1005      0.0000
      7 H          22.4014   12.3822    9.1515 H     1005  DMS1005      0.0000
      8 H          20.1522   12.2953    6.9136 H     1005  DMS1005      0.0000
      9 H          21.9325   12.4667    6.6327 H     1005  DMS1005      0.0000
     10 H          20.7752   13.6083    5.8447 H     1005  DMS1005      0.0000
@<TRIPOS>BOND
     1     1     2    2
     2     1     3    1
     3     1     4    1
     4     3     5    1
     5     3     6    1
     6     3     7    1
     7     4     8    1
     8     4     9    1
     9     4    10    1

