@<TRIPOS>MOLECULE
DMS_2_A_1002
 10 9 0 0 0
SMALL
NO_CHARGES

@<TRIPOS>ATOM
      1 S          -7.3340  -28.1330  -21.6390 S.o   1002  DMS1002      0.0000
      2 O          -7.8260  -27.2000  -22.6560 O.2   1002  DMS1002      0.0000
      3 C1         -6.0890  -29.0530  -22.5120 C.3   1002  DMS1002      0.0000
      4 C2         -6.2920  -27.2330  -20.5370 C.3   1002  DMS1002      0.0000
      5 H          -5.5472  -29.7142  -21.8051 H     1002  DMS1002      0.0000
      6 H          -5.3676  -28.3644  -22.9979 H     1002  DMS1002      0.0000
      7 H          -6.5718  -29.6800  -23.2893 H     1002  DMS1002      0.0000
      8 H          -5.7647  -27.9356  -19.8598 H     1002  DMS1002      0.0000
      9 H          -6.9108  -26.5441  -19.9266 H     1002  DMS1002      0.0000
     10 H          -5.5466  -26.6405  -21.1060 H     1002  DMS1002      0.0000
@<TRIPOS>BOND
     1     1     2    2
     2     1     3    1
     3     1     4    1
     4     3     5    1
     5     3     6    1
     6     3     7    1
     7     4     8    1
     8     4     9    1
     9     4    10    1

