DMS_1_A_1002
  -ISIS-            3D

 10  9  0  0  0  0  0  0  0  0  1 V2000
    7.3340  -28.1330   21.6390 S   0  0  0  0  0
    7.8260  -27.2000   22.6560 O   0  0  0  0  0
    6.0890  -29.0530   22.5120 C   0  0  0  0  0
    6.2920  -27.2330   20.5370 C   0  0  0  0  0
    5.5472  -29.7142   21.8051 H   0  0  0  0  0
    5.3676  -28.3644   22.9979 H   0  0  0  0  0
    6.5718  -29.6800   23.2893 H   0  0  0  0  0
    5.7647  -27.9356   19.8598 H   0  0  0  0  0
    6.9108  -26.5441   19.9266 H   0  0  0  0  0
    5.5466  -26.6405   21.1060 H   0  0  0  0  0
  1  2  2  0  0  0
  1  3  1  0  0  0
  1  4  1  0  0  0
  3  5  1  0  0  0
  3  6  1  0  0  0
  3  7  1  0  0  0
  4  8  1  0  0  0
  4  9  1  0  0  0
  4 10  1  0  0  0
M  END
$$$$
