@<TRIPOS>MOLECULE
DMS_2_A_1003
 10 9 0 0 0
SMALL
NO_CHARGES

@<TRIPOS>ATOM
      1 S          -6.1160   -1.1660    6.2810 S.o   1003  DMS1003      0.0000
      2 O          -6.7240   -1.1460    7.5980 O.2   1003  DMS1003      0.0000
      3 C1         -7.4190   -0.9940    5.1180 C.3   1003  DMS1003      0.0000
      4 C2         -5.6900   -2.8560    6.0170 C.3   1003  DMS1003      0.0000
      5 H          -7.0305   -1.1530    4.0913 H     1003  DMS1003      0.0000
      6 H          -7.8416    0.0294    5.1854 H     1003  DMS1003      0.0000
      7 H          -8.2226   -1.7304    5.3242 H     1003  DMS1003      0.0000
      8 H          -5.3327   -2.9950    4.9762 H     1003  DMS1003      0.0000
      9 H          -6.5689   -3.5096    6.1933 H     1003  DMS1003      0.0000
     10 H          -4.8780   -3.1459    6.7149 H     1003  DMS1003      0.0000
@<TRIPOS>BOND
     1     1     2    2
     2     1     3    1
     3     1     4    1
     4     3     5    1
     5     3     6    1
     6     3     7    1
     7     4     8    1
     8     4     9    1
     9     4    10    1

