4SV_1_A_201
  -ISIS-            3D

 15 15  0  0  0  0  0  0  0  0  1 V2000
  -45.8930  -29.6050    2.0840 O   0  0  0  0  0
  -45.1710  -29.5290    3.0960 C   0  0  0  0  0
  -43.9100  -29.4630    3.0440 O   0  0  0  0  0
  -45.9080  -29.4680    4.3820 C   0  0  0  0  0
  -45.3130  -29.6160    5.6210 C   0  0  0  0  0
  -43.9080  -29.8650    5.8330 N   0  0  0  0  0
  -47.2810  -29.2060    4.2780 C   0  0  0  0  0
  -47.9640  -29.1080    5.4230 C   0  0  0  0  0
  -47.3540  -29.2850    6.5840 N   0  0  0  0  0
  -46.0990  -29.5220    6.7300 C   0  0  0  0  0
  -43.3516  -29.8683    4.9581 H   0  0  0  0  0
  -43.5699  -30.0119    6.7928 H   0  0  0  0  0
  -47.7958  -29.0723    3.3133 H   0  0  0  0  0
  -49.0457  -28.8952    5.4240 H   0  0  0  0  0
  -45.6916  -29.6412    7.7462 H   0  0  0  0  0
  1  2  2  0  0  0
  2  3  2  0  0  0
  2  4  1  0  0  0
  4  5  2  0  0  0
  4  7  1  0  0  0
  5  6  1  0  0  0
  5 10  1  0  0  0
  6 11  1  0  0  0
  6 12  1  0  0  0
  7  8  2  0  0  0
  7 13  1  0  0  0
  8  9  1  0  0  0
  8 14  1  0  0  0
  9 10  2  0  0  0
 10 15  1  0  0  0
M  END
$$$$
