@<TRIPOS>MOLECULE
DMS_2_A_402
 10 9 0 0 0
SMALL
NO_CHARGES

@<TRIPOS>ATOM
      1 S          -6.0000   -1.0620    6.3120 S.o    402  DMS402      0.0000
      2 O          -6.7530   -0.8220    7.5940 O.2    402  DMS402      0.0000
      3 C1         -7.1990   -1.0350    5.0120 C.3    402  DMS402      0.0000
      4 C2         -5.6330   -2.7920    6.2680 C.3    402  DMS402      0.0000
      5 H          -6.7268   -1.3433    4.0568 H      402  DMS402      0.0000
      6 H          -7.5938   -0.0046    4.8987 H      402  DMS402      0.0000
      7 H          -8.0402   -1.7192    5.2461 H      402  DMS402      0.0000
      8 H          -5.1977   -3.0603    5.2837 H      402  DMS402      0.0000
      9 H          -6.5527   -3.3880    6.4401 H      402  DMS402      0.0000
     10 H          -4.8955   -3.0306    7.0615 H      402  DMS402      0.0000
@<TRIPOS>BOND
     1     1     2    2
     2     1     3    1
     3     1     4    1
     4     3     5    1
     5     3     6    1
     6     3     7    1
     7     4     8    1
     8     4     9    1
     9     4    10    1

