DMS_1_A_401
  -ISIS-            3D

 10  9  0  0  0  0  0  0  0  0  1 V2000
    7.2090  -28.0700   21.5090 S   0  0  0  0  0
    7.9180  -26.9960   22.2850 O   0  0  0  0  0
    5.9220  -28.6870   22.5470 C   0  0  0  0  0
    6.1700  -27.2400   20.3380 C   0  0  0  0  0
    5.2773  -29.3857   21.9755 H   0  0  0  0  0
    5.3054  -27.8524   22.9398 H   0  0  0  0  0
    6.3708  -29.2345   23.4008 H   0  0  0  0  0
    5.5177  -27.9753   19.8240 H   0  0  0  0  0
    6.8033  -26.7347   19.5806 H   0  0  0  0  0
    5.5419  -26.4798   20.8466 H   0  0  0  0  0
  1  2  2  0  0  0
  1  3  1  0  0  0
  1  4  1  0  0  0
  3  5  1  0  0  0
  3  6  1  0  0  0
  3  7  1  0  0  0
  4  8  1  0  0  0
  4  9  1  0  0  0
  4 10  1  0  0  0
M  END
$$$$
