EDO_1_B_401
  -ISIS-            3D

 10  9  0  0  0  0  0  0  0  0  1 V2000
   19.9690  -18.4250   10.4420 C   0  0  0  0  0
   19.6750  -19.7960   10.1270 O   0  0  0  0  0
   18.6940  -17.7040   10.8760 C   0  0  0  0  0
   18.9830  -16.3550   11.2830 O   0  0  0  0  0
   20.4097  -17.9252    9.5537 H   0  0  0  0  0
   20.7231  -18.3889   11.2567 H   0  0  0  0  0
   20.4855  -20.2213    9.8799 H   0  0  0  0  0
   18.2222  -18.2465   11.7228 H   0  0  0  0  0
   17.9617  -17.6891   10.0412 H   0  0  0  0  0
   18.1698  -15.9482   11.5514 H   0  0  0  0  0
  1  2  1  0  0  0
  1  3  1  0  0  0
  1  5  1  0  0  0
  1  6  1  0  0  0
  2  7  1  0  0  0
  3  4  1  0  0  0
  3  8  1  0  0  0
  3  9  1  0  0  0
  4 10  1  0  0  0
M  END
$$$$
