@<TRIPOS>MOLECULE
EDO_1_A_405
 10 9 0 0 0
SMALL
NO_CHARGES

@<TRIPOS>ATOM
      1 C1         -8.8020    7.3580   47.1850 C.3    405  EDO405      0.0000
      2 O1         -8.6750    7.7800   45.8170 O.3    405  EDO405      0.0000
      3 C2         -9.4790    5.9950   47.2260 C.3    405  EDO405      0.0000
      4 O2         -9.4610    5.4990   48.5710 O.3    405  EDO405      0.0000
      5 H          -9.3746    8.1115   47.7656 H      405  EDO405      0.0000
      6 H          -7.7872    7.2979   47.6303 H      405  EDO405      0.0000
      7 H          -9.5033    8.1451   45.5344 H      405  EDO405      0.0000
      8 H          -8.9358    5.2757   46.5785 H      405  EDO405      0.0000
      9 H         -10.5236    6.0516   46.8539 H      405  EDO405      0.0000
     10 H         -10.1602    5.9157   49.0576 H      405  EDO405      0.0000
@<TRIPOS>BOND
     1     1     2    1
     2     1     3    1
     3     1     5    1
     4     1     6    1
     5     2     7    1
     6     3     4    1
     7     3     8    1
     8     3     9    1
     9     4    10    1

