@<TRIPOS>MOLECULE
EDO_1_A_406
 10 9 0 0 0
SMALL
NO_CHARGES

@<TRIPOS>ATOM
      1 C1        -10.4630  -15.6780   25.6840 C.3    406  EDO406      0.0000
      2 O1        -11.7650  -16.2230   25.9760 O.3    406  EDO406      0.0000
      3 C2         -9.4090  -16.7530   25.9470 C.3    406  EDO406      0.0000
      4 O2         -8.1920  -16.1880   26.4660 O.3    406  EDO406      0.0000
      5 H         -10.2872  -14.7999   26.3410 H      406  EDO406      0.0000
      6 H         -10.4188  -15.3265   24.6322 H      406  EDO406      0.0000
      7 H         -12.4050  -15.5342   25.8551 H      406  EDO406      0.0000
      8 H          -9.1947  -17.3187   25.0160 H      406  EDO406      0.0000
      9 H          -9.7958  -17.4847   26.6885 H      406  EDO406      0.0000
     10 H          -7.5941  -16.8991   26.6547 H      406  EDO406      0.0000
@<TRIPOS>BOND
     1     1     2    1
     2     1     3    1
     3     1     5    1
     4     1     6    1
     5     2     7    1
     6     3     4    1
     7     3     8    1
     8     3     9    1
     9     4    10    1

