@<TRIPOS>MOLECULE
EDO_1_B_401
 10 9 0 0 0
SMALL
NO_CHARGES

@<TRIPOS>ATOM
      1 C1         19.9690  -18.4250   10.4420 C.3    401  EDO401      0.0000
      2 O1         19.6750  -19.7960   10.1270 O.3    401  EDO401      0.0000
      3 C2         18.6940  -17.7040   10.8760 C.3    401  EDO401      0.0000
      4 O2         18.9830  -16.3550   11.2830 O.3    401  EDO401      0.0000
      5 H          20.4097  -17.9252    9.5537 H      401  EDO401      0.0000
      6 H          20.7231  -18.3889   11.2567 H      401  EDO401      0.0000
      7 H          20.4855  -20.2213    9.8799 H      401  EDO401      0.0000
      8 H          18.2222  -18.2465   11.7228 H      401  EDO401      0.0000
      9 H          17.9617  -17.6891   10.0412 H      401  EDO401      0.0000
     10 H          18.1698  -15.9482   11.5514 H      401  EDO401      0.0000
@<TRIPOS>BOND
     1     1     2    1
     2     1     3    1
     3     1     5    1
     4     1     6    1
     5     2     7    1
     6     3     4    1
     7     3     8    1
     8     3     9    1
     9     4    10    1

