EDO_1_A_403
  -ISIS-            3D

 10  9  0  0  0  0  0  0  0  0  1 V2000
  -14.5730   -8.0010   28.3040 C   0  0  0  0  0
  -14.3690   -6.8540   27.4620 O   0  0  0  0  0
  -13.6750   -9.1240   27.7940 C   0  0  0  0  0
  -12.3100   -8.7090   27.8980 O   0  0  0  0  0
  -15.6408   -8.2986   28.2611 H   0  0  0  0  0
  -14.3370   -7.7432   29.3575 H   0  0  0  0  0
  -13.4291   -6.7179   27.4234 H   0  0  0  0  0
  -13.9160   -9.3699   26.7382 H   0  0  0  0  0
  -13.8318  -10.0429   28.3975 H   0  0  0  0  0
  -11.7612   -9.4166   27.5874 H   0  0  0  0  0
  1  2  1  0  0  0
  1  3  1  0  0  0
  1  5  1  0  0  0
  1  6  1  0  0  0
  2  7  1  0  0  0
  3  4  1  0  0  0
  3  8  1  0  0  0
  3  9  1  0  0  0
  4 10  1  0  0  0
M  END
$$$$
