@<TRIPOS>MOLECULE
EDO_1_A_402
 10 9 0 0 0
SMALL
NO_CHARGES

@<TRIPOS>ATOM
      1 C1          5.0630  -12.0360   16.0770 C.3    402  EDO402      0.0000
      2 O1          4.8140  -10.6210   16.1100 O.3    402  EDO402      0.0000
      3 C2          3.8840  -12.7440   15.4140 C.3    402  EDO402      0.0000
      4 O2          2.7250  -12.6310   16.2480 O.3    402  EDO402      0.0000
      5 H           5.2083  -12.4044   17.1134 H      402  EDO402      0.0000
      6 H           6.0037  -12.2407   15.5235 H      402  EDO402      0.0000
      7 H           5.1537  -10.2364   15.3131 H      402  EDO402      0.0000
      8 H           4.1131  -13.8199   15.2692 H      402  EDO402      0.0000
      9 H           3.6704  -12.3158   14.4127 H      402  EDO402      0.0000
     10 H           2.6578  -11.7161   16.4965 H      402  EDO402      0.0000
@<TRIPOS>BOND
     1     1     2    1
     2     1     3    1
     3     1     5    1
     4     1     6    1
     5     2     7    1
     6     3     4    1
     7     3     8    1
     8     3     9    1
     9     4    10    1

