@<TRIPOS>MOLECULE
EDO_1_A_403
 10 9 0 0 0
SMALL
NO_CHARGES

@<TRIPOS>ATOM
      1 C1        -14.5730   -8.0010   28.3040 C.3    403  EDO403      0.0000
      2 O1        -14.3690   -6.8540   27.4620 O.3    403  EDO403      0.0000
      3 C2        -13.6750   -9.1240   27.7940 C.3    403  EDO403      0.0000
      4 O2        -12.3100   -8.7090   27.8980 O.3    403  EDO403      0.0000
      5 H         -15.6408   -8.2986   28.2611 H      403  EDO403      0.0000
      6 H         -14.3370   -7.7432   29.3575 H      403  EDO403      0.0000
      7 H         -13.4291   -6.7179   27.4234 H      403  EDO403      0.0000
      8 H         -13.9160   -9.3699   26.7382 H      403  EDO403      0.0000
      9 H         -13.8318  -10.0429   28.3975 H      403  EDO403      0.0000
     10 H         -11.7612   -9.4166   27.5874 H      403  EDO403      0.0000
@<TRIPOS>BOND
     1     1     2    1
     2     1     3    1
     3     1     5    1
     4     1     6    1
     5     2     7    1
     6     3     4    1
     7     3     8    1
     8     3     9    1
     9     4    10    1

