@<TRIPOS>MOLECULE
DMS_1_A_401
 10 9 0 0 0
SMALL
NO_CHARGES

@<TRIPOS>ATOM
      1 S           7.1790  -28.1020   21.5610 S.o    401  DMS401      0.0000
      2 O           7.9740  -27.1970   22.4360 O.2    401  DMS401      0.0000
      3 C1          5.9130  -28.8220   22.5760 C.3    401  DMS401      0.0000
      4 C2          6.1310  -27.1020   20.5370 C.3    401  DMS401      0.0000
      5 H           5.2221  -29.4212   21.9483 H      401  DMS401      0.0000
      6 H           5.3420  -28.0293   23.1016 H      401  DMS401      0.0000
      7 H           6.3816  -29.4886   23.3287 H      401  DMS401      0.0000
      8 H           5.4384  -27.7491   19.9608 H      401  DMS401      0.0000
      9 H           6.7567  -26.5248   19.8258 H      401  DMS401      0.0000
     10 H           5.5454  -26.3942   21.1589 H      401  DMS401      0.0000
@<TRIPOS>BOND
     1     1     2    2
     2     1     3    1
     3     1     4    1
     4     3     5    1
     5     3     6    1
     6     3     7    1
     7     4     8    1
     8     4     9    1
     9     4    10    1

