@<TRIPOS>MOLECULE
DMS_1_A_403
 10 9 0 0 0
SMALL
NO_CHARGES

@<TRIPOS>ATOM
      1 S           8.3220  -48.8850   28.5370 S.o    403  DMS403      0.0000
      2 O           9.3490  -48.9850   29.6370 O.2    403  DMS403      0.0000
      3 C1          6.8440  -48.2060   29.2560 C.3    403  DMS403      0.0000
      4 C2          7.7270  -50.5280   28.2570 C.3    403  DMS403      0.0000
      5 H           6.0172  -48.2376   28.5172 H      403  DMS403      0.0000
      6 H           7.0282  -47.1505   29.5429 H      403  DMS403      0.0000
      7 H           6.5553  -48.7811   30.1596 H      403  DMS403      0.0000
      8 H           6.8764  -50.5048   27.5454 H      403  DMS403      0.0000
      9 H           7.3977  -50.9880   29.2112 H      403  DMS403      0.0000
     10 H           8.5405  -51.1436   27.8216 H      403  DMS403      0.0000
@<TRIPOS>BOND
     1     1     2    2
     2     1     3    1
     3     1     4    1
     4     3     5    1
     5     3     6    1
     6     3     7    1
     7     4     8    1
     8     4     9    1
     9     4    10    1

