DMS_2_A_409
  -ISIS-            3D

 10  9  0  0  0  0  0  0  0  0  1 V2000
  -25.1080  -31.6010  -19.0050 S   0  0  0  0  0
  -24.8850  -31.7910  -17.5290 O   0  0  0  0  0
  -25.9010  -30.0250  -19.1840 C   0  0  0  0  0
  -26.4990  -32.6210  -19.4610 C   0  0  0  0  0
  -26.2140  -29.8783  -20.2379 H   0  0  0  0  0
  -25.1870  -29.2221  -18.9082 H   0  0  0  0  0
  -26.7891  -29.9611  -18.5222 H   0  0  0  0  0
  -26.7924  -32.4097  -20.5096 H   0  0  0  0  0
  -27.3589  -32.4239  -18.7882 H   0  0  0  0  0
  -26.2117  -33.6891  -19.3772 H   0  0  0  0  0
  1  2  2  0  0  0
  1  3  1  0  0  0
  1  4  1  0  0  0
  3  5  1  0  0  0
  3  6  1  0  0  0
  3  7  1  0  0  0
  4  8  1  0  0  0
  4  9  1  0  0  0
  4 10  1  0  0  0
M  END
$$$$
