DMS_1_A_405
  -ISIS-            3D

 10  9  0  0  0  0  0  0  0  0  1 V2000
    2.0850  -45.7570    8.1910 S   0  0  0  0  0
    2.1080  -47.1500    7.6190 O   0  0  0  0  0
    3.7070  -45.5260    8.8590 C   0  0  0  0  0
    1.2090  -45.8500    9.7300 C   0  0  0  0  0
    3.7469  -44.5776    9.4328 H   0  0  0  0  0
    4.4413  -45.4716    8.0293 H   0  0  0  0  0
    3.9775  -46.3713    9.5246 H   0  0  0  0  0
    1.3020  -44.8886   10.2754 H   0  0  0  0  0
    1.6126  -46.6714   10.3569 H   0  0  0  0  0
    0.1356  -46.0444    9.5288 H   0  0  0  0  0
  1  2  2  0  0  0
  1  3  1  0  0  0
  1  4  1  0  0  0
  3  5  1  0  0  0
  3  6  1  0  0  0
  3  7  1  0  0  0
  4  8  1  0  0  0
  4  9  1  0  0  0
  4 10  1  0  0  0
M  END
$$$$
