@<TRIPOS>MOLECULE
DMS_1_A_406
 10 9 0 0 0
SMALL
NO_CHARGES

@<TRIPOS>ATOM
      1 S           6.3390  -26.6110   18.1350 S.o    406  DMS406      0.0000
      2 O           6.3080  -26.1860   19.5720 O.2    406  DMS406      0.0000
      3 C1          8.0450  -26.8650   17.7430 C.3    406  DMS406      0.0000
      4 C2          6.0890  -25.1400   17.1820 C.3    406  DMS406      0.0000
      5 H           8.1593  -27.0420   16.6539 H      406  DMS406      0.0000
      6 H           8.4185  -27.7546   18.2901 H      406  DMS406      0.0000
      7 H           8.6470  -25.9813   18.0387 H      406  DMS406      0.0000
      8 H           6.2466  -25.3569   16.1056 H      406  DMS406      0.0000
      9 H           6.7912  -24.3443   17.5053 H      406  DMS406      0.0000
     10 H           5.0489  -24.7826   17.3256 H      406  DMS406      0.0000
@<TRIPOS>BOND
     1     1     2    2
     2     1     3    1
     3     1     4    1
     4     3     5    1
     5     3     6    1
     6     3     7    1
     7     4     8    1
     8     4     9    1
     9     4    10    1

