@<TRIPOS>MOLECULE
DMS_2_A_408
 10 9 0 0 0
SMALL
NO_CHARGES

@<TRIPOS>ATOM
      1 S         -20.9840  -43.6080   -4.4730 S.o    408  DMS408      0.0000
      2 O         -19.9180  -43.7200   -5.5210 O.2    408  DMS408      0.0000
      3 C1        -20.7060  -42.0910   -3.6110 C.3    408  DMS408      0.0000
      4 C2        -20.5240  -44.7250   -3.1660 C.3    408  DMS408      0.0000
      5 H         -21.3863  -42.0234   -2.7375 H      408  DMS408      0.0000
      6 H         -20.9123  -41.2393   -4.2911 H      408  DMS408      0.0000
      7 H         -19.6538  -42.0293   -3.2653 H      408  DMS408      0.0000
      8 H         -21.2071  -44.5944   -2.3018 H      408  DMS408      0.0000
      9 H         -19.4796  -44.5340   -2.8446 H      408  DMS408      0.0000
     10 H         -20.6044  -45.7692   -3.5316 H      408  DMS408      0.0000
@<TRIPOS>BOND
     1     1     2    2
     2     1     3    1
     3     1     4    1
     4     3     5    1
     5     3     6    1
     6     3     7    1
     7     4     8    1
     8     4     9    1
     9     4    10    1

