DMS_2_A_402
  -ISIS-            3D

 10  9  0  0  0  0  0  0  0  0  1 V2000
   -6.0810   -1.0050    6.3670 S   0  0  0  0  0
   -6.9710   -0.7560    7.5410 O   0  0  0  0  0
   -7.1250   -0.9170    4.9320 C   0  0  0  0  0
   -5.7840   -2.7510    6.3520 C   0  0  0  0  0
   -6.5583   -1.2390    4.0344 H   0  0  0  0  0
   -7.4607    0.1302    4.7867 H   0  0  0  0  0
   -8.0147   -1.5669    5.0603 H   0  0  0  0  0
   -5.2482   -3.0337    5.4227 H   0  0  0  0  0
   -6.7417   -3.3076    6.4097 H   0  0  0  0  0
   -5.1551   -3.0238    7.2241 H   0  0  0  0  0
  1  2  2  0  0  0
  1  3  1  0  0  0
  1  4  1  0  0  0
  3  5  1  0  0  0
  3  6  1  0  0  0
  3  7  1  0  0  0
  4  8  1  0  0  0
  4  9  1  0  0  0
  4 10  1  0  0  0
M  END
$$$$
