@<TRIPOS>MOLECULE
DMS_1_A_401
 10 9 0 0 0
SMALL
NO_CHARGES

@<TRIPOS>ATOM
      1 S           7.2600  -28.1830   21.2350 S.o    401  DMS401      0.0000
      2 O           7.9170  -27.1700   22.1090 O.2    401  DMS401      0.0000
      3 C1          6.0300  -28.9850   22.2430 C.3    401  DMS401      0.0000
      4 C2          6.1720  -27.2920   20.1530 C.3    401  DMS401      0.0000
      5 H           5.4125  -29.6601   21.6156 H      401  DMS401      0.0000
      6 H           5.3773  -28.2307   22.7277 H      401  DMS401      0.0000
      7 H           6.5339  -29.5856   23.0277 H      401  DMS401      0.0000
      8 H           5.5527  -28.0056   19.5716 H      401  DMS401      0.0000
      9 H           6.7737  -26.6827   19.4479 H      401  DMS401      0.0000
     10 H           5.5109  -26.6204   20.7378 H      401  DMS401      0.0000
@<TRIPOS>BOND
     1     1     2    2
     2     1     3    1
     3     1     4    1
     4     3     5    1
     5     3     6    1
     6     3     7    1
     7     4     8    1
     8     4     9    1
     9     4    10    1

