@<TRIPOS>MOLECULE
EDO_1_A_408
 10 9 0 0 0
SMALL
NO_CHARGES

@<TRIPOS>ATOM
      1 C1         56.9880  -12.6230  -19.5980 C.3    408  EDO408      0.0000
      2 O1         57.1570  -11.3550  -20.2800 O.3    408  EDO408      0.0000
      3 C2         56.6310  -13.8080  -20.5240 C.3    408  EDO408      0.0000
      4 O2         57.5660  -14.0250  -21.6380 O.3    408  EDO408      0.0000
      5 H          56.2006  -12.5019  -18.8252 H      408  EDO408      0.0000
      6 H          57.9280  -12.8552  -19.0538 H      408  EDO408      0.0000
      7 H          57.6776  -11.5377  -21.0530 H      408  EDO408      0.0000
      8 H          55.6167  -13.6404  -20.9454 H      408  EDO408      0.0000
      9 H          56.5738  -14.7388  -19.9202 H      408  EDO408      0.0000
     10 H          57.2542  -14.7665  -22.1394 H      408  EDO408      0.0000
@<TRIPOS>BOND
     1     1     2    1
     2     1     3    1
     3     1     5    1
     4     1     6    1
     5     2     7    1
     6     3     4    1
     7     3     8    1
     8     3     9    1
     9     4    10    1

