@<TRIPOS>MOLECULE
EDO_1_A_405
 10 9 0 0 0
SMALL
NO_CHARGES

@<TRIPOS>ATOM
      1 C1         56.3170  -34.9560   14.3330 C.3    405  EDO405      0.0000
      2 O1         56.7550  -36.1140   13.6010 O.3    405  EDO405      0.0000
      3 C2         56.8470  -33.7060   13.6240 C.3    405  EDO405      0.0000
      4 O2         58.2580  -33.8620   13.3540 O.3    405  EDO405      0.0000
      5 H          56.7081  -35.0047   15.3714 H      405  EDO405      0.0000
      6 H          55.2084  -34.9349   14.3869 H      405  EDO405      0.0000
      7 H          56.4226  -36.8841   14.0424 H      405  EDO405      0.0000
      8 H          56.6895  -32.8016   14.2465 H      405  EDO405      0.0000
      9 H          56.3100  -33.5464   12.6653 H      405  EDO405      0.0000
     10 H          58.3671  -34.7497   13.0314 H      405  EDO405      0.0000
@<TRIPOS>BOND
     1     1     2    1
     2     1     3    1
     3     1     5    1
     4     1     6    1
     5     2     7    1
     6     3     4    1
     7     3     8    1
     8     3     9    1
     9     4    10    1

