EDO_1_A_404
  -ISIS-            3D

 10  9  0  0  0  0  0  0  0  0  1 V2000
   70.4190  -10.1920  -20.2480 C   0  0  0  0  0
   71.4620  -11.1450  -20.4960 O   0  0  0  0  0
   70.7870   -8.7840  -20.6930 C   0  0  0  0  0
   69.8760   -7.9120  -20.0040 O   0  0  0  0  0
   70.1804  -10.2042  -19.1625 H   0  0  0  0  0
   69.5007  -10.5264  -20.7743 H   0  0  0  0  0
   72.1028  -11.0733  -19.8010 H   0  0  0  0  0
   70.6889   -8.6676  -21.7922 H   0  0  0  0  0
   71.8284   -8.5329  -20.4020 H   0  0  0  0  0
   70.0350   -7.0253  -20.3000 H   0  0  0  0  0
  1  2  1  0  0  0
  1  3  1  0  0  0
  1  5  1  0  0  0
  1  6  1  0  0  0
  2  7  1  0  0  0
  3  4  1  0  0  0
  3  8  1  0  0  0
  3  9  1  0  0  0
  4 10  1  0  0  0
M  END
$$$$
