EDO_1_A_403
  -ISIS-            3D

 10  9  0  0  0  0  0  0  0  0  1 V2000
   60.4440  -29.5200   10.6810 C   0  0  0  0  0
   61.4400  -30.3520   10.0680 O   0  0  0  0  0
   60.3360  -28.2040    9.9010 C   0  0  0  0  0
   61.5890  -27.5020    9.9870 O   0  0  0  0  0
   60.7324  -29.3251   11.7347 H   0  0  0  0  0
   59.4664  -30.0466   10.7008 H   0  0  0  0  0
   61.0209  -30.8866    9.4066 H   0  0  0  0  0
   59.5359  -27.5643   10.3270 H   0  0  0  0  0
   60.0825  -28.3894    8.8364 H   0  0  0  0  0
   62.2693  -28.1450    9.8228 H   0  0  0  0  0
  1  2  1  0  0  0
  1  3  1  0  0  0
  1  5  1  0  0  0
  1  6  1  0  0  0
  2  7  1  0  0  0
  3  4  1  0  0  0
  3  8  1  0  0  0
  3  9  1  0  0  0
  4 10  1  0  0  0
M  END
$$$$
