@<TRIPOS>MOLECULE
EDO_1_A_409
 10 9 0 0 0
SMALL
NO_CHARGES

@<TRIPOS>ATOM
      1 C1         34.3550  -35.0870   -2.9810 C.3    409  EDO409      0.0000
      2 O1         34.8190  -34.1860   -1.9610 O.3    409  EDO409      0.0000
      3 C2         35.5030  -35.3730   -3.9460 C.3    409  EDO409      0.0000
      4 O2         35.5840  -36.7670   -4.2880 O.3    409  EDO409      0.0000
      5 H          33.4750  -34.6622   -3.5074 H      409  EDO409      0.0000
      6 H          34.0210  -36.0224   -2.4862 H      409  EDO409      0.0000
      7 H          34.8304  -33.3072   -2.3172 H      409  EDO409      0.0000
      8 H          36.4712  -35.0886   -3.4834 H      409  EDO409      0.0000
      9 H          35.4051  -34.7616   -4.8677 H      409  EDO409      0.0000
     10 H          34.8688  -36.9742   -4.8752 H      409  EDO409      0.0000
@<TRIPOS>BOND
     1     1     2    1
     2     1     3    1
     3     1     5    1
     4     1     6    1
     5     2     7    1
     6     3     4    1
     7     3     8    1
     8     3     9    1
     9     4    10    1

