@<TRIPOS>MOLECULE
1SQ_1_A_201
 19 20 0 0 0
SMALL
NO_CHARGES

@<TRIPOS>ATOM
      1 N1          9.9770   21.4900   10.0020 N.3    201  1SQ201      0.0000
      2 C2         10.4110   21.0930    8.6750 C.ar   201  1SQ201      0.0000
      3 N3          9.9770   19.9490    8.1690 N.ar   201  1SQ201      0.0000
      4 C4         10.3380   19.5310    6.9610 C.ar   201  1SQ201      0.0000
      5 C5         11.1980   20.3070    6.1930 C.ar   201  1SQ201      0.0000
      6 C6         11.6890   21.5470    6.7030 C.ar   201  1SQ201      0.0000
      7 C7         12.5710   22.3660    5.9420 C.ar   201  1SQ201      0.0000
      8 C8         13.0310   23.5690    6.4680 C.ar   201  1SQ201      0.0000
      9 C9         12.6280   23.9740    7.7430 C.ar   201  1SQ201      0.0000
     10 C10        11.7660   23.1760    8.4870 C.ar   201  1SQ201      0.0000
     11 C11        11.2940   21.9430    7.9500 C.ar   201  1SQ201      0.0000
     12 H          10.3024   22.3719   10.4109 H      201  1SQ201      0.0000
     13 H           9.3432   20.8117   10.4428 H      201  1SQ201      0.0000
     14 H           9.9475   18.5708    6.5867 H      201  1SQ201      0.0000
     15 H          11.4995   19.9624    5.1900 H      201  1SQ201      0.0000
     16 H          12.8921   22.0505    4.9350 H      201  1SQ201      0.0000
     17 H          13.7144   24.2038    5.8789 H      201  1SQ201      0.0000
     18 H          12.9949   24.9284    8.1576 H      201  1SQ201      0.0000
     19 H          11.4739   23.5336    9.4850 H      201  1SQ201      0.0000
@<TRIPOS>BOND
     1     1     2    1
     2     1    12    1
     3     1    13    1
     4     2     3   ar
     5     2    11   ar
     6     3     4   ar
     7     4     5   ar
     8     4    14    1
     9     5     6   ar
    10     5    15    1
    11     6     7   ar
    12     6    11   ar
    13     7     8   ar
    14     7    16    1
    15     8     9   ar
    16     8    17    1
    17     9    10   ar
    18     9    18    1
    19    10    11   ar
    20    10    19    1

