@<TRIPOS>MOLECULE
0EN_2_A_401
 63 65 0 0 0
SMALL
NO_CHARGES

@<TRIPOS>ATOM
      1 O1         -4.9410  -13.9980  -21.5120 O.2    401  0EN401      0.0000
      2 C1         -6.0190  -14.2530  -21.9300 C.2    401  0EN401      0.0000
      3 C4         -6.3930  -15.7600  -22.1150 C.ar   401  0EN401      0.0000
      4 C5         -7.3970  -16.2750  -22.9030 C.ar   401  0EN401      0.0000
      5 C6         -7.3560  -17.6330  -22.8050 C.ar   401  0EN401      0.0000
      6 C7         -6.3240  -17.9700  -21.9690 C.ar   401  0EN401      0.0000
      7 O3         -5.7280  -16.8090  -21.5510 O.3    401  0EN401      0.0000
      8 N1         -6.9080  -13.1090  -22.2600 N.am   401  0EN401      0.0000
      9 C8         -8.2960  -13.2400  -22.8510 C.ar   401  0EN401      0.0000
     10 C9         -9.5510  -13.3920  -21.9650 C.ar   401  0EN401      0.0000
     11 C10       -10.9460  -13.5090  -22.6370 C.ar   401  0EN401      0.0000
     12 C11       -11.0720  -13.4670  -24.1790 C.ar   401  0EN401      0.0000
     13 C14       -12.4660  -13.5840  -24.8470 C.3    401  0EN401      0.0000
     14 C15       -12.7470  -12.2990  -25.6530 C.3    401  0EN401      0.0000
     15 C16       -12.4750  -14.7890  -25.7690 C.3    401  0EN401      0.0000
     16 C17       -13.5290  -13.7730  -23.7360 C.3    401  0EN401      0.0000
     17 C12        -9.8160  -13.3050  -25.0560 C.ar   401  0EN401      0.0000
     18 C13        -8.4220  -13.1870  -24.3880 C.ar   401  0EN401      0.0000
     19 C2         -6.3330  -11.7830  -22.0740 C.3    401  0EN401      0.0000
     20 C3         -7.3170  -10.6610  -22.4020 C.2    401  0EN401      0.0000
     21 N2         -7.0180   -9.6250  -23.4290 N.am   401  0EN401      0.0000
     22 C23        -8.0130   -8.5310  -23.7220 C.3    401  0EN401      0.0000
     23 C24        -9.4430   -9.1160  -23.7800 C.3    401  0EN401      0.0000
     24 C25        -7.9410   -7.4510  -22.6320 C.3    401  0EN401      0.0000
     25 C26        -7.6960   -7.8870  -25.0860 C.3    401  0EN401      0.0000
     26 O2         -8.3220  -10.6110  -21.7790 O.2    401  0EN401      0.0000
     27 C18        -5.9400  -11.4890  -20.6200 C.ar   401  0EN401      0.0000
     28 C19        -4.7690  -10.6000  -20.3420 C.ar   401  0EN401      0.0000
     29 C20        -4.3990  -10.2990  -18.9170 C.ar   401  0EN401      0.0000
     30 C21        -5.2280  -10.8940  -17.7770 C.ar   401  0EN401      0.0000
     31 N3         -6.4040  -11.7690  -18.0730 N.ar   401  0EN401      0.0000
     32 C22        -6.7790  -12.0750  -19.4830 C.ar   401  0EN401      0.0000
     33 H          -8.1135  -15.7148  -23.5122 H      401  0EN401      0.0000
     34 H          -8.0286  -18.3383  -23.3086 H      401  0EN401      0.0000
     35 H          -5.8848  -18.8890  -21.5784 H      401  0EN401      0.0000
     36 H          -9.4635  -13.4182  -20.8683 H      401  0EN401      0.0000
     37 H         -11.8167  -13.6180  -21.9747 H      401  0EN401      0.0000
     38 H         -13.7571  -12.3208  -26.1195 H      401  0EN401      0.0000
     39 H         -12.0144  -12.1458  -26.4756 H      401  0EN401      0.0000
     40 H         -12.7056  -11.3942  -25.0060 H      401  0EN401      0.0000
     41 H         -13.4724  -14.9409  -26.2388 H      401  0EN401      0.0000
     42 H         -12.2276  -15.7275  -25.2239 H      401  0EN401      0.0000
     43 H         -11.7431  -14.6957  -26.6010 H      401  0EN401      0.0000
     44 H         -14.5459  -13.8727  -24.1777 H      401  0EN401      0.0000
     45 H         -13.5819  -12.9028  -23.0445 H      401  0EN401      0.0000
     46 H         -13.3630  -14.6957  -23.1364 H      401  0EN401      0.0000
     47 H          -9.8923  -13.2691  -26.1542 H      401  0EN401      0.0000
     48 H          -7.5219  -13.0665  -25.0121 H      401  0EN401      0.0000
     49 H          -5.4376  -11.6628  -22.7270 H      401  0EN401      0.0000
     50 H          -6.1255   -9.6610  -23.9400 H      401  0EN401      0.0000
     51 H         -10.1543   -8.3860  -24.2270 H      401  0EN401      0.0000
     52 H          -9.8667   -9.3657  -22.7851 H      401  0EN401      0.0000
     53 H          -9.4894  -10.0318  -24.4113 H      401  0EN401      0.0000
     54 H          -8.6587   -6.6221  -22.8228 H      401  0EN401      0.0000
     55 H          -6.9250   -7.0007  -22.5710 H      401  0EN401      0.0000
     56 H          -8.1748   -7.8605  -21.6244 H      401  0EN401      0.0000
     57 H          -8.4082   -7.0697  -25.3377 H      401  0EN401      0.0000
     58 H          -7.7458   -8.6334  -25.9104 H      401  0EN401      0.0000
     59 H          -6.6738   -7.4469  -25.1043 H      401  0EN401      0.0000
     60 H          -4.1770  -10.1683  -21.1656 H      401  0EN401      0.0000
     61 H          -3.5355   -9.6522  -18.6915 H      401  0EN401      0.0000
     62 H          -4.9722  -10.6855  -16.7257 H      401  0EN401      0.0000
     63 H          -7.6504  -12.7181  -19.6722 H      401  0EN401      0.0000
@<TRIPOS>BOND
     1     1     2    2
     2     2     3    1
     3     2     8    1
     4     3     4   ar
     5     3     7   ar
     6     4     5   ar
     7     4    33    1
     8     5     6   ar
     9     5    34    1
    10     6     7   ar
    11     6    35    1
    12     8     9    1
    13     8    19    1
    14     9    10   ar
    15     9    18   ar
    16    10    11   ar
    17    10    36    1
    18    11    12   ar
    19    11    37    1
    20    12    13    1
    21    12    17   ar
    22    13    14    1
    23    13    15    1
    24    13    16    1
    25    14    38    1
    26    14    39    1
    27    14    40    1
    28    15    41    1
    29    15    42    1
    30    15    43    1
    31    16    44    1
    32    16    45    1
    33    16    46    1
    34    17    18   ar
    35    17    47    1
    36    18    48    1
    37    19    20    1
    38    19    27    1
    39    19    49    1
    40    20    21    1
    41    20    26    2
    42    21    22    1
    43    21    50    1
    44    22    23    1
    45    22    24    1
    46    22    25    1
    47    23    51    1
    48    23    52    1
    49    23    53    1
    50    24    54    1
    51    24    55    1
    52    24    56    1
    53    25    57    1
    54    25    58    1
    55    25    59    1
    56    27    28   ar
    57    27    32   ar
    58    28    29   ar
    59    28    60    1
    60    29    30   ar
    61    29    61    1
    62    30    31   ar
    63    30    62    1
    64    31    32   ar
    65    32    63    1

