FMT_1_A_7105
  -ISIS-            3D

  4  3  0  0  0  0  0  0  0  0  1 V2000
  105.4620   29.9060    3.7520 C   0  0  0  0  0
  104.6650   29.6580    4.6330 O   0  0  0  0  0
  105.2990   29.6190    2.4930 O   0  0  0  0  0
  106.4431   30.4378    4.0475 H   0  0  0  0  0
  1  2  2  0  0  0
  1  3  1  0  0  0
  1  4  1  0  0  0
M  END
$$$$
