@<TRIPOS>MOLECULE
FMT_1_B_4403
 4 3 0 0 0
SMALL
NO_CHARGES

@<TRIPOS>ATOM
      1 C          69.9240   31.3500  -10.3740 C.2   4403  FMT4403      0.0000
      2 O1         68.8040   31.4840  -10.8250 O.2   4403  FMT4403     -0.5000
      3 O2         71.0250   31.4750  -11.0570 O.3   4403  FMT4403     -0.5000
      4 H          70.0262   31.0918   -9.2535 H     4403  FMT4403      0.0000
@<TRIPOS>BOND
     1     1     2   ar
     2     1     3   ar
     3     1     4    1

