FMT_1_A_7104
  -ISIS-            3D

  4  3  0  0  0  0  0  0  0  0  1 V2000
   81.9880   26.0920   12.3380 C   0  0  0  0  0
   82.2990   24.9600   12.0300 O   0  0  0  0  0
   82.7930   26.9730   12.8580 O   0  0  0  0  0
   80.8955   26.4186   12.1582 H   0  0  0  0  0
  1  2  2  0  0  0
  1  3  1  0  0  0
  1  4  1  0  0  0
M  END
$$$$
