@<TRIPOS>MOLECULE
FMT_1_A_7108
 4 3 0 0 0
SMALL
NO_CHARGES

@<TRIPOS>ATOM
      1 C          99.3340   14.5750   12.5800 C.2   7108  FMT7108      0.0000
      2 O1         98.1890   14.2260   12.7830 O.2   7108  FMT7108     -0.5000
      3 O2         99.7960   14.9890   11.4350 O.3   7108  FMT7108     -0.5000
      4 H         100.0740   14.5394   13.4652 H     7108  FMT7108      0.0000
@<TRIPOS>BOND
     1     1     2   ar
     2     1     3   ar
     3     1     4    1

