FMT_1_B_4403
  -ISIS-            3D

  4  3  0  0  0  0  0  0  0  0  1 V2000
   69.9240   31.3500  -10.3740 C   0  0  0  0  0
   68.8040   31.4840  -10.8250 O   0  0  0  0  0
   71.0250   31.4750  -11.0570 O   0  0  0  0  0
   70.0262   31.0918   -9.2535 H   0  0  0  0  0
  1  2  2  0  0  0
  1  3  1  0  0  0
  1  4  1  0  0  0
M  END
$$$$
