@<TRIPOS>MOLECULE
FMT_1_A_7103
 3 2 0 0 0
SMALL
NO_CHARGES

@<TRIPOS>ATOM
      1 C          84.4960   22.4930   13.5570 C.2   7103  FMT7103      0.0000
      2 O1         84.6550   21.5360   12.8280 O.2   7103  FMT7103      0.0000
      3 O2         85.4310   23.3310   13.8810 O.2   7103  FMT7103     -0.5000
@<TRIPOS>BOND
     1     1     2   ar
     2     1     3   ar

