@<TRIPOS>MOLECULE
FMT_1_A_7107
 4 3 0 0 0
SMALL
NO_CHARGES

@<TRIPOS>ATOM
      1 C          90.9080   31.9520  -14.5050 C.2   7107  FMT7107      0.0000
      2 O1         89.9770   32.2970  -15.2040 O.2   7107  FMT7107     -0.5000
      3 O2         92.1540   32.2940  -14.6830 O.3   7107  FMT7107     -0.5000
      4 H          90.6776   31.2642  -13.6068 H     7107  FMT7107      0.0000
@<TRIPOS>BOND
     1     1     2   ar
     2     1     3   ar
     3     1     4    1

