DMS_1_A_402
  -ISIS-            3D

 10  9  0  0  0  0  0  0  0  0  1 V2000
   17.3250  -31.8510    6.6300 S   0  0  0  0  0
   15.8830  -31.5370    6.3940 O   0  0  0  0  0
   18.1000  -32.3600    5.0690 C   0  0  0  0  0
   18.2290  -30.3090    6.9360 C   0  0  0  0  0
   19.1851  -32.5242    5.2297 H   0  0  0  0  0
   17.9512  -31.5739    4.3006 H   0  0  0  0  0
   17.6350  -33.3055    4.7223 H   0  0  0  0  0
   19.3108  -30.5282    7.0448 H   0  0  0  0  0
   17.8546  -29.8461    7.8719 H   0  0  0  0  0
   18.0738  -29.6069    6.0913 H   0  0  0  0  0
  1  2  2  0  0  0
  1  3  1  0  0  0
  1  4  1  0  0  0
  3  5  1  0  0  0
  3  6  1  0  0  0
  3  7  1  0  0  0
  4  8  1  0  0  0
  4  9  1  0  0  0
  4 10  1  0  0  0
M  END
$$$$
