@<TRIPOS>MOLECULE
DMS_1_A_403
 10 9 0 0 0
SMALL
NO_CHARGES

@<TRIPOS>ATOM
      1 S           1.8930  -45.2760   25.9030 S.o    403  DMS403      0.0000
      2 O           1.0260  -46.4790   26.1000 O.2    403  DMS403      0.0000
      3 C1          3.3620  -45.4030   26.9600 C.3    403  DMS403      0.0000
      4 C2          2.7010  -45.3790   24.2830 C.3    403  DMS403      0.0000
      5 H           4.0405  -44.5492   26.7579 H      403  DMS403      0.0000
      6 H           3.8915  -46.3564   26.7571 H      403  DMS403      0.0000
      7 H           3.0496  -45.3765   28.0239 H      403  DMS403      0.0000
      8 H           3.4005  -44.5268   24.1614 H      403  DMS403      0.0000
      9 H           1.9300  -45.3341   23.4868 H      403  DMS403      0.0000
     10 H           3.2589  -46.3342   24.1996 H      403  DMS403      0.0000
@<TRIPOS>BOND
     1     1     2    2
     2     1     3    1
     3     1     4    1
     4     3     5    1
     5     3     6    1
     6     3     7    1
     7     4     8    1
     8     4     9    1
     9     4    10    1

