@<TRIPOS>MOLECULE
DMS_1_A_402
 10 9 0 0 0
SMALL
NO_CHARGES

@<TRIPOS>ATOM
      1 S          17.3250  -31.8510    6.6300 S.o    402  DMS402      0.0000
      2 O          15.8830  -31.5370    6.3940 O.2    402  DMS402      0.0000
      3 C1         18.1000  -32.3600    5.0690 C.3    402  DMS402      0.0000
      4 C2         18.2290  -30.3090    6.9360 C.3    402  DMS402      0.0000
      5 H          19.1851  -32.5242    5.2297 H      402  DMS402      0.0000
      6 H          17.9512  -31.5739    4.3006 H      402  DMS402      0.0000
      7 H          17.6350  -33.3055    4.7223 H      402  DMS402      0.0000
      8 H          19.3108  -30.5282    7.0448 H      402  DMS402      0.0000
      9 H          17.8546  -29.8461    7.8719 H      402  DMS402      0.0000
     10 H          18.0738  -29.6069    6.0913 H      402  DMS402      0.0000
@<TRIPOS>BOND
     1     1     2    2
     2     1     3    1
     3     1     4    1
     4     3     5    1
     5     3     6    1
     6     3     7    1
     7     4     8    1
     8     4     9    1
     9     4    10    1

