DMS_1_A_406
  -ISIS-            3D

 10  9  0  0  0  0  0  0  0  0  1 V2000
  -25.4340  -14.3330   25.1650 S   0  0  0  0  0
  -24.5600  -14.1680   23.9620 O   0  0  0  0  0
  -26.6900  -15.6000   24.8350 C   0  0  0  0  0
  -26.5020  -12.8780   25.3580 C   0  0  0  0  0
  -27.3747  -15.6792   25.7040 H   0  0  0  0  0
  -26.1900  -16.5769   24.6738 H   0  0  0  0  0
  -27.2684  -15.3292   23.9280 H   0  0  0  0  0
  -27.1911  -13.0341   26.2130 H   0  0  0  0  0
  -27.0889  -12.7165   24.4306 H   0  0  0  0  0
  -25.8723  -11.9862   25.5543 H   0  0  0  0  0
  1  2  2  0  0  0
  1  3  1  0  0  0
  1  4  1  0  0  0
  3  5  1  0  0  0
  3  6  1  0  0  0
  3  7  1  0  0  0
  4  8  1  0  0  0
  4  9  1  0  0  0
  4 10  1  0  0  0
M  END
$$$$
