@<TRIPOS>MOLECULE
DMS_2_A_405
 10 9 0 0 0
SMALL
NO_CHARGES

@<TRIPOS>ATOM
      1 S         -11.0110  -45.5500   42.7900 S.o    405  DMS405      0.0000
      2 O         -11.7110  -45.7550   41.4860 O.2    405  DMS405      0.0000
      3 C1         -9.4180  -44.7410   42.4880 C.3    405  DMS405      0.0000
      4 C2        -11.8890  -44.2910   43.7580 C.3    405  DMS405      0.0000
      5 H          -8.9182  -44.5346   43.4564 H      405  DMS405      0.0000
      6 H          -9.5781  -43.7890   41.9415 H      405  DMS405      0.0000
      7 H          -8.7762  -45.4112   41.8804 H      405  DMS405      0.0000
      8 H         -11.3358  -44.0956   44.6993 H      405  DMS405      0.0000
      9 H         -12.9065  -44.6598   44.0008 H      405  DMS405      0.0000
     10 H         -11.9672  -43.3533   43.1706 H      405  DMS405      0.0000
@<TRIPOS>BOND
     1     1     2    2
     2     1     3    1
     3     1     4    1
     4     3     5    1
     5     3     6    1
     6     3     7    1
     7     4     8    1
     8     4     9    1
     9     4    10    1

