@<TRIPOS>MOLECULE
DMS_2_A_404
 10 9 0 0 0
SMALL
NO_CHARGES

@<TRIPOS>ATOM
      1 S         -21.5190  -43.1510   22.0440 S.o    404  DMS404      0.0000
      2 O         -20.8410  -44.0230   23.0510 O.2    404  DMS404      0.0000
      3 C1        -20.3620  -42.7420   20.7060 C.3    404  DMS404      0.0000
      4 C2        -22.7440  -44.1150   21.1180 C.3    404  DMS404      0.0000
      5 H         -20.8858  -42.1443   19.9322 H      404  DMS404      0.0000
      6 H         -19.9664  -43.6740   20.2529 H      404  DMS404      0.0000
      7 H         -19.5210  -42.1484   21.1191 H      404  DMS404      0.0000
      8 H         -23.2008  -43.4786   20.3328 H      404  DMS404      0.0000
      9 H         -23.5357  -44.4632   21.8124 H      404  DMS404      0.0000
     10 H         -22.2550  -44.9930   20.6484 H      404  DMS404      0.0000
@<TRIPOS>BOND
     1     1     2    2
     2     1     3    1
     3     1     4    1
     4     3     5    1
     5     3     6    1
     6     3     7    1
     7     4     8    1
     8     4     9    1
     9     4    10    1

