@<TRIPOS>MOLECULE
DMS_1_A_405
 10 9 0 0 0
SMALL
NO_CHARGES

@<TRIPOS>ATOM
      1 S          -2.8870  -45.5500    8.8680 S.o    405  DMS405      0.0000
      2 O          -2.1870  -45.7550   10.1720 O.2    405  DMS405      0.0000
      3 C1         -4.4800  -44.7410    9.1700 C.3    405  DMS405      0.0000
      4 C2         -2.0090  -44.2910    7.9010 C.3    405  DMS405      0.0000
      5 H          -4.9797  -44.5343    8.2016 H      405  DMS405      0.0000
      6 H          -4.3199  -43.7891    9.7167 H      405  DMS405      0.0000
      7 H          -5.1219  -45.4113    9.7774 H      405  DMS405      0.0000
      8 H          -2.5619  -44.0953    6.9596 H      405  DMS405      0.0000
      9 H          -0.9914  -44.6597    7.6584 H      405  DMS405      0.0000
     10 H          -1.9310  -43.3535    8.4888 H      405  DMS405      0.0000
@<TRIPOS>BOND
     1     1     2    2
     2     1     3    1
     3     1     4    1
     4     3     5    1
     5     3     6    1
     6     3     7    1
     7     4     8    1
     8     4     9    1
     9     4    10    1

