DMS_2_A_404
  -ISIS-            3D

 10  9  0  0  0  0  0  0  0  0  1 V2000
  -21.5190  -43.1510   22.0440 S   0  0  0  0  0
  -20.8410  -44.0230   23.0510 O   0  0  0  0  0
  -20.3620  -42.7420   20.7060 C   0  0  0  0  0
  -22.7440  -44.1150   21.1180 C   0  0  0  0  0
  -20.8858  -42.1443   19.9322 H   0  0  0  0  0
  -19.9664  -43.6740   20.2529 H   0  0  0  0  0
  -19.5210  -42.1484   21.1191 H   0  0  0  0  0
  -23.2008  -43.4786   20.3328 H   0  0  0  0  0
  -23.5357  -44.4632   21.8124 H   0  0  0  0  0
  -22.2550  -44.9930   20.6484 H   0  0  0  0  0
  1  2  2  0  0  0
  1  3  1  0  0  0
  1  4  1  0  0  0
  3  5  1  0  0  0
  3  6  1  0  0  0
  3  7  1  0  0  0
  4  8  1  0  0  0
  4  9  1  0  0  0
  4 10  1  0  0  0
M  END
$$$$
