DMS_1_A_405
  -ISIS-            3D

 10  9  0  0  0  0  0  0  0  0  1 V2000
   -2.8870  -45.5500    8.8680 S   0  0  0  0  0
   -2.1870  -45.7550   10.1720 O   0  0  0  0  0
   -4.4800  -44.7410    9.1700 C   0  0  0  0  0
   -2.0090  -44.2910    7.9010 C   0  0  0  0  0
   -4.9797  -44.5343    8.2016 H   0  0  0  0  0
   -4.3199  -43.7891    9.7167 H   0  0  0  0  0
   -5.1219  -45.4113    9.7774 H   0  0  0  0  0
   -2.5619  -44.0953    6.9596 H   0  0  0  0  0
   -0.9914  -44.6597    7.6584 H   0  0  0  0  0
   -1.9310  -43.3535    8.4888 H   0  0  0  0  0
  1  2  2  0  0  0
  1  3  1  0  0  0
  1  4  1  0  0  0
  3  5  1  0  0  0
  3  6  1  0  0  0
  3  7  1  0  0  0
  4  8  1  0  0  0
  4  9  1  0  0  0
  4 10  1  0  0  0
M  END
$$$$
