DMS_2_A_406
  -ISIS-            3D

 10  9  0  0  0  0  0  0  0  0  1 V2000
   11.5360  -14.3330   26.4930 S   0  0  0  0  0
   10.6620  -14.1680   27.6960 O   0  0  0  0  0
   12.7920  -15.6000   26.8230 C   0  0  0  0  0
   12.6040  -12.8780   26.3000 C   0  0  0  0  0
   13.4767  -15.6792   25.9540 H   0  0  0  0  0
   12.2920  -16.5769   26.9842 H   0  0  0  0  0
   13.3704  -15.3292   27.7300 H   0  0  0  0  0
   13.2931  -13.0341   25.4450 H   0  0  0  0  0
   13.1909  -12.7165   27.2274 H   0  0  0  0  0
   11.9743  -11.9862   26.1037 H   0  0  0  0  0
  1  2  2  0  0  0
  1  3  1  0  0  0
  1  4  1  0  0  0
  3  5  1  0  0  0
  3  6  1  0  0  0
  3  7  1  0  0  0
  4  8  1  0  0  0
  4  9  1  0  0  0
  4 10  1  0  0  0
M  END
$$$$
