DMS_1_A_403
  -ISIS-            3D

 10  9  0  0  0  0  0  0  0  0  1 V2000
    1.8930  -45.2760   25.9030 S   0  0  0  0  0
    1.0260  -46.4790   26.1000 O   0  0  0  0  0
    3.3620  -45.4030   26.9600 C   0  0  0  0  0
    2.7010  -45.3790   24.2830 C   0  0  0  0  0
    4.0405  -44.5492   26.7579 H   0  0  0  0  0
    3.8915  -46.3564   26.7571 H   0  0  0  0  0
    3.0496  -45.3765   28.0239 H   0  0  0  0  0
    3.4005  -44.5268   24.1614 H   0  0  0  0  0
    1.9300  -45.3341   23.4868 H   0  0  0  0  0
    3.2589  -46.3342   24.1996 H   0  0  0  0  0
  1  2  2  0  0  0
  1  3  1  0  0  0
  1  4  1  0  0  0
  3  5  1  0  0  0
  3  6  1  0  0  0
  3  7  1  0  0  0
  4  8  1  0  0  0
  4  9  1  0  0  0
  4 10  1  0  0  0
M  END
$$$$
