@<TRIPOS>MOLECULE
DMS_1_A_404
 10 9 0 0 0
SMALL
NO_CHARGES

@<TRIPOS>ATOM
      1 S           7.6210  -43.1510   29.6150 S.o    404  DMS404      0.0000
      2 O           6.9430  -44.0230   28.6070 O.2    404  DMS404      0.0000
      3 C1          6.4640  -42.7420   30.9520 C.3    404  DMS404      0.0000
      4 C2          8.8460  -44.1150   30.5400 C.3    404  DMS404      0.0000
      5 H           6.9875  -42.1444   31.7260 H      404  DMS404      0.0000
      6 H           6.0681  -43.6740   31.4050 H      404  DMS404      0.0000
      7 H           5.6232  -42.1483   30.5386 H      404  DMS404      0.0000
      8 H           9.3030  -43.4789   31.3254 H      404  DMS404      0.0000
      9 H           9.6376  -44.4628   29.8453 H      404  DMS404      0.0000
     10 H           8.3573  -44.9933   31.0093 H      404  DMS404      0.0000
@<TRIPOS>BOND
     1     1     2    2
     2     1     3    1
     3     1     4    1
     4     3     5    1
     5     3     6    1
     6     3     7    1
     7     4     8    1
     8     4     9    1
     9     4    10    1

