@<TRIPOS>MOLECULE
DMS_2_A_403
 10 9 0 0 0
SMALL
NO_CHARGES

@<TRIPOS>ATOM
      1 S         -15.7910  -45.2760   25.7560 S.o    403  DMS403      0.0000
      2 O         -14.9240  -46.4790   25.5580 O.2    403  DMS403      0.0000
      3 C1        -17.2600  -45.4030   24.6980 C.3    403  DMS403      0.0000
      4 C2        -16.5990  -45.3790   27.3760 C.3    403  DMS403      0.0000
      5 H         -17.9387  -44.5493   24.9001 H      403  DMS403      0.0000
      6 H         -17.7893  -46.3566   24.9005 H      403  DMS403      0.0000
      7 H         -16.9471  -45.3761   23.6342 H      403  DMS403      0.0000
      8 H         -17.2985  -44.5268   27.4976 H      403  DMS403      0.0000
      9 H         -15.8281  -45.3341   28.1722 H      403  DMS403      0.0000
     10 H         -17.1569  -46.3342   27.4594 H      403  DMS403      0.0000
@<TRIPOS>BOND
     1     1     2    2
     2     1     3    1
     3     1     4    1
     4     3     5    1
     5     3     6    1
     6     3     7    1
     7     4     8    1
     8     4     9    1
     9     4    10    1

