@<TRIPOS>MOLECULE
DMS_1_A_406
 10 9 0 0 0
SMALL
NO_CHARGES

@<TRIPOS>ATOM
      1 S         -25.4340  -14.3330   25.1650 S.o    406  DMS406      0.0000
      2 O         -24.5600  -14.1680   23.9620 O.2    406  DMS406      0.0000
      3 C1        -26.6900  -15.6000   24.8350 C.3    406  DMS406      0.0000
      4 C2        -26.5020  -12.8780   25.3580 C.3    406  DMS406      0.0000
      5 H         -27.3747  -15.6792   25.7040 H      406  DMS406      0.0000
      6 H         -26.1900  -16.5769   24.6738 H      406  DMS406      0.0000
      7 H         -27.2684  -15.3292   23.9280 H      406  DMS406      0.0000
      8 H         -27.1911  -13.0341   26.2130 H      406  DMS406      0.0000
      9 H         -27.0889  -12.7165   24.4306 H      406  DMS406      0.0000
     10 H         -25.8723  -11.9862   25.5543 H      406  DMS406      0.0000
@<TRIPOS>BOND
     1     1     2    2
     2     1     3    1
     3     1     4    1
     4     3     5    1
     5     3     6    1
     6     3     7    1
     7     4     8    1
     8     4     9    1
     9     4    10    1

