EDO_1_B_201
  -ISIS-            3D

 10  9  0  0  0  0  0  0  0  0  1 V2000
   -7.6060   -9.8360   50.3780 C   0  0  0  0  0
   -6.9640   -9.3550   51.5440 O   0  0  0  0  0
   -6.6330  -10.0530   49.2650 C   0  0  0  0  0
   -5.6330  -11.0030   49.5820 O   0  0  0  0  0
   -8.4030   -9.1263   50.0690 H   0  0  0  0  0
   -8.1156  -10.7906   50.6260 H   0  0  0  0  0
   -6.8667   -8.4145   51.4726 H   0  0  0  0  0
   -6.1444   -9.0947   48.9884 H   0  0  0  0  0
   -7.1688  -10.4018   48.3575 H   0  0  0  0  0
   -5.3533  -10.8189   50.4712 H   0  0  0  0  0
  1  2  1  0  0  0
  1  3  1  0  0  0
  1  5  1  0  0  0
  1  6  1  0  0  0
  2  7  1  0  0  0
  3  4  1  0  0  0
  3  8  1  0  0  0
  3  9  1  0  0  0
  4 10  1  0  0  0
M  END
$$$$
