@<TRIPOS>MOLECULE
DMS_2_A_401
 10 9 0 0 0
SMALL
NO_CHARGES

@<TRIPOS>ATOM
      1 S          -7.1070  -28.1150  -21.5990 S.o    401  DMS401      0.0000
      2 O          -7.8510  -27.1100  -22.3730 O.2    401  DMS401      0.0000
      3 C1         -5.7790  -28.7040  -22.6210 C.3    401  DMS401      0.0000
      4 C2         -6.1310  -27.2160  -20.4340 C.3    401  DMS401      0.0000
      5 H          -5.1114  -29.3625  -22.0287 H      401  DMS401      0.0000
      6 H          -5.1947  -27.8516  -23.0248 H      401  DMS401      0.0000
      7 H          -6.1981  -29.2867  -23.4667 H      401  DMS401      0.0000
      8 H          -5.4495  -27.9083  -19.8987 H      401  DMS401      0.0000
      9 H          -6.7980  -26.7290  -19.6935 H      401  DMS401      0.0000
     10 H          -5.5338  -26.4354  -20.9488 H      401  DMS401      0.0000
@<TRIPOS>BOND
     1     1     2    2
     2     1     3    1
     3     1     4    1
     4     3     5    1
     5     3     6    1
     6     3     7    1
     7     4     8    1
     8     4     9    1
     9     4    10    1

