@<TRIPOS>MOLECULE
DMS_2_A_405
 10 9 0 0 0
SMALL
NO_CHARGES

@<TRIPOS>ATOM
      1 S         -21.2750   14.5030   -7.9200 S.o    405  DMS405      0.0000
      2 O         -22.7140   14.1650   -7.6150 O.2    405  DMS405      0.0000
      3 C1        -20.3390   13.9510   -6.5200 C.3    405  DMS405      0.0000
      4 C2        -20.7320   13.2640   -9.0650 C.3    405  DMS405      0.0000
      5 H         -19.2541   14.0242   -6.7392 H      405  DMS405      0.0000
      6 H         -20.5957   12.9013   -6.2709 H      405  DMS405      0.0000
      7 H         -20.5711   14.5953   -5.6473 H      405  DMS405      0.0000
      8 H         -19.6377   13.3512   -9.2239 H      405  DMS405      0.0000
      9 H         -21.2461   13.4122  -10.0357 H      405  DMS405      0.0000
     10 H         -20.9701   12.2505   -8.6824 H      405  DMS405      0.0000
@<TRIPOS>BOND
     1     1     2    2
     2     1     3    1
     3     1     4    1
     4     3     5    1
     5     3     6    1
     6     3     7    1
     7     4     8    1
     8     4     9    1
     9     4    10    1

