DMS_1_A_403
  -ISIS-            3D

 10  9  0  0  0  0  0  0  0  0  1 V2000
    2.4130  -19.0900    8.0950 S   0  0  0  0  0
    3.6960  -18.7750    8.8250 O   0  0  0  0  0
    1.1320  -18.2440    8.9930 C   0  0  0  0  0
    1.9880  -20.7390    8.6100 C   0  0  0  0  0
    0.1373  -18.5613    8.6186 H   0  0  0  0  0
    1.2394  -17.1506    8.8400 H   0  0  0  0  0
    1.2072  -18.4653   10.0775 H   0  0  0  0  0
    0.9715  -20.9961    8.2482 H   0  0  0  0  0
    2.0187  -20.8204    9.7160 H   0  0  0  0  0
    2.7139  -21.4564    8.1753 H   0  0  0  0  0
  1  2  2  0  0  0
  1  3  1  0  0  0
  1  4  1  0  0  0
  3  5  1  0  0  0
  3  6  1  0  0  0
  3  7  1  0  0  0
  4  8  1  0  0  0
  4  9  1  0  0  0
  4 10  1  0  0  0
M  END
$$$$
