@<TRIPOS>MOLECULE
DMS_1_A_402
 10 9 0 0 0
SMALL
NO_CHARGES

@<TRIPOS>ATOM
      1 S           6.0920   -1.1020   -6.3220 S.o    402  DMS402      0.0000
      2 O           7.0520   -0.7950   -7.4270 O.2    402  DMS402      0.0000
      3 C1          7.0640   -1.0740   -4.8240 C.3    402  DMS402      0.0000
      4 C2          5.7740   -2.8340   -6.3870 C.3    402  DMS402      0.0000
      5 H           6.4482   -1.4246   -3.9706 H      402  DMS402      0.0000
      6 H           7.3971   -0.0352   -4.6232 H      402  DMS402      0.0000
      7 H           7.9552   -1.7261   -4.9302 H      402  DMS402      0.0000
      8 H           5.1835   -3.1424   -5.5002 H      402  DMS402      0.0000
      9 H           6.7263   -3.4024   -6.4118 H      402  DMS402      0.0000
     10 H           5.1918   -3.0667   -7.3021 H      402  DMS402      0.0000
@<TRIPOS>BOND
     1     1     2    2
     2     1     3    1
     3     1     4    1
     4     3     5    1
     5     3     6    1
     6     3     7    1
     7     4     8    1
     8     4     9    1
     9     4    10    1

