HLR_1_A_201
  -ISIS-            3D

 16 17  0  0  0  0  0  0  0  0  1 V2000
  -49.6200  -29.1100    5.9710 C   0  0  0  0  0
  -48.2710  -29.0390    6.3330 C   0  0  0  0  0
  -47.3280  -28.9650    5.3160 C   0  0  0  0  0
  -47.7320  -28.9650    3.9730 C   0  0  0  0  0
  -49.0590  -29.0320    3.6230 C   0  0  0  0  0
  -50.0150  -29.1060    4.6520 C   0  0  0  0  0
  -50.8180  -29.2030    6.7360 C   0  0  0  0  0
  -51.8160  -29.2690    5.8520 N   0  0  0  0  0
  -50.8540  -29.2310    8.1710 N   0  0  0  0  0
  -51.3380  -29.1920    4.6200 O   0  0  0  0  0
  -47.9600  -29.0424    7.3898 H   0  0  0  0  0
  -46.2547  -28.9075    5.5650 H   0  0  0  0  0
  -46.9656  -28.9084    3.1810 H   0  0  0  0  0
  -49.3747  -29.0310    2.5694 H   0  0  0  0  0
  -49.9503  -29.1701    8.6558 H   0  0  0  0  0
  -51.7906  -29.3102    8.5866 H   0  0  0  0  0
  1  2  2  0  0  0
  1  6  1  0  0  0
  1  7  1  0  0  0
  2  3  1  0  0  0
  2 11  1  0  0  0
  3  4  2  0  0  0
  3 12  1  0  0  0
  4  5  1  0  0  0
  4 13  1  0  0  0
  5  6  2  0  0  0
  5 14  1  0  0  0
  6 10  1  0  0  0
  7  8  2  0  0  0
  7  9  1  0  0  0
  8 10  1  0  0  0
  9 15  1  0  0  0
  9 16  1  0  0  0
M  END
$$$$
