@<TRIPOS>MOLECULE
EDO_1_L_401
 10 9 0 0 0
SMALL
NO_CHARGES

@<TRIPOS>ATOM
      1 C1         -6.9260    0.8080   17.7010 C.3    401  EDO401      0.0000
      2 O1         -7.3760   -0.5230   18.0140 O.3    401  EDO401      0.0000
      3 C2         -7.9860    1.5700   16.9310 C.3    401  EDO401      0.0000
      4 O2         -8.1910    0.8690   15.6950 O.3    401  EDO401      0.0000
      5 H          -5.9870    0.7566   17.1094 H      401  EDO401      0.0000
      6 H          -6.6879    1.3399   18.6463 H      401  EDO401      0.0000
      7 H          -6.6234   -1.0368   18.2757 H      401  EDO401      0.0000
      8 H          -7.6557    2.6088   16.7216 H      401  EDO401      0.0000
      9 H          -8.9335    1.6179   17.5079 H      401  EDO401      0.0000
     10 H          -8.9869    1.1964   15.2971 H      401  EDO401      0.0000
@<TRIPOS>BOND
     1     1     2    1
     2     1     3    1
     3     1     5    1
     4     1     6    1
     5     2     7    1
     6     3     4    1
     7     3     8    1
     8     3     9    1
     9     4    10    1

