EDO_1_L_402
  -ISIS-            3D

 10  9  0  0  0  0  0  0  0  0  1 V2000
    6.7850   -4.8440   13.9820 C   0  0  0  0  0
    6.0650   -3.6650   13.5710 O   0  0  0  0  0
    7.1820   -4.9150   15.4650 C   0  0  0  0  0
    6.1200   -4.7740   16.4310 O   0  0  0  0  0
    7.7019   -4.9325   13.3603 H   0  0  0  0  0
    6.1613   -5.7324   13.7436 H   0  0  0  0  0
    5.8716   -3.7416   12.6459 H   0  0  0  0  0
    7.9366   -4.1255   15.6692 H   0  0  0  0  0
    7.6938   -5.8809   15.6598 H   0  0  0  0  0
    5.5810   -4.0525   16.1309 H   0  0  0  0  0
  1  2  1  0  0  0
  1  3  1  0  0  0
  1  5  1  0  0  0
  1  6  1  0  0  0
  2  7  1  0  0  0
  3  4  1  0  0  0
  3  8  1  0  0  0
  3  9  1  0  0  0
  4 10  1  0  0  0
M  END
$$$$
