EDO_1_H_301
  -ISIS-            3D

 10  9  0  0  0  0  0  0  0  0  1 V2000
  -21.0790    1.3460    3.8430 C   0  0  0  0  0
  -19.8430    2.0720    3.8100 O   0  0  0  0  0
  -20.8500   -0.1100    3.4790 C   0  0  0  0  0
  -20.1630   -0.2050    2.2020 O   0  0  0  0  0
  -21.7945    1.8078    3.1297 H   0  0  0  0  0
  -21.5280    1.4207    4.8560 H   0  0  0  0  0
  -20.0222    2.9722    4.0462 H   0  0  0  0  0
  -21.8138   -0.6554    3.4128 H   0  0  0  0  0
  -20.2396   -0.6147    4.2572 H   0  0  0  0  0
  -19.4611    0.4352    2.2355 H   0  0  0  0  0
  1  2  1  0  0  0
  1  3  1  0  0  0
  1  5  1  0  0  0
  1  6  1  0  0  0
  2  7  1  0  0  0
  3  4  1  0  0  0
  3  8  1  0  0  0
  3  9  1  0  0  0
  4 10  1  0  0  0
M  END
$$$$
