EDO_1_C_303
  -ISIS-            3D

 10  9  0  0  0  0  0  0  0  0  1 V2000
    8.2610   -3.4070   54.9130 C   0  0  0  0  0
    7.8670   -3.2930   53.5390 O   0  0  0  0  0
    8.7230   -4.8320   55.2100 C   0  0  0  0  0
    9.9220   -5.1800   54.5120 O   0  0  0  0  0
    7.3998   -3.1406   55.5616 H   0  0  0  0  0
    9.0785   -2.6880   55.1325 H   0  0  0  0  0
    7.7658   -2.3728   53.3338 H   0  0  0  0  0
    7.9169   -5.5479   54.9414 H   0  0  0  0  0
    8.9015   -4.9436   56.3008 H   0  0  0  0  0
   10.0540   -6.1155   54.5926 H   0  0  0  0  0
  1  2  1  0  0  0
  1  3  1  0  0  0
  1  5  1  0  0  0
  1  6  1  0  0  0
  2  7  1  0  0  0
  3  4  1  0  0  0
  3  8  1  0  0  0
  3  9  1  0  0  0
  4 10  1  0  0  0
M  END
$$$$
