@<TRIPOS>MOLECULE
EDO_1_L_402
 10 9 0 0 0
SMALL
NO_CHARGES

@<TRIPOS>ATOM
      1 C1          6.7850   -4.8440   13.9820 C.3    402  EDO402      0.0000
      2 O1          6.0650   -3.6650   13.5710 O.3    402  EDO402      0.0000
      3 C2          7.1820   -4.9150   15.4650 C.3    402  EDO402      0.0000
      4 O2          6.1200   -4.7740   16.4310 O.3    402  EDO402      0.0000
      5 H           7.7019   -4.9325   13.3603 H      402  EDO402      0.0000
      6 H           6.1613   -5.7324   13.7436 H      402  EDO402      0.0000
      7 H           5.8716   -3.7416   12.6459 H      402  EDO402      0.0000
      8 H           7.9366   -4.1255   15.6692 H      402  EDO402      0.0000
      9 H           7.6938   -5.8809   15.6598 H      402  EDO402      0.0000
     10 H           5.5810   -4.0525   16.1309 H      402  EDO402      0.0000
@<TRIPOS>BOND
     1     1     2    1
     2     1     3    1
     3     1     5    1
     4     1     6    1
     5     2     7    1
     6     3     4    1
     7     3     8    1
     8     3     9    1
     9     4    10    1

