@<TRIPOS>MOLECULE
EDO_1_C_304
 10 9 0 0 0
SMALL
NO_CHARGES

@<TRIPOS>ATOM
      1 C1         31.1430    2.7730   40.7960 C.3    304  EDO304      0.0000
      2 O1         30.2740    3.1700   41.8610 O.3    304  EDO304      0.0000
      3 C2         31.0030    1.2720   40.6250 C.3    304  EDO304      0.0000
      4 O2         29.6050    0.9690   40.4080 O.3    304  EDO304      0.0000
      5 H          32.1937    3.0553   41.0187 H      304  EDO304      0.0000
      6 H          30.8450    3.3035   39.8681 H      304  EDO304      0.0000
      7 H          30.7966    3.3243   42.6368 H      304  EDO304      0.0000
      8 H          31.3647    0.7300   41.5235 H      304  EDO304      0.0000
      9 H          31.5933    0.9144   39.7569 H      304  EDO304      0.0000
     10 H          29.1166    1.5017   41.0259 H      304  EDO304      0.0000
@<TRIPOS>BOND
     1     1     2    1
     2     1     3    1
     3     1     5    1
     4     1     6    1
     5     2     7    1
     6     3     4    1
     7     3     8    1
     8     3     9    1
     9     4    10    1

