EDO_1_C_302
  -ISIS-            3D

 10  9  0  0  0  0  0  0  0  0  1 V2000
    7.2830    8.7740   56.3080 C   0  0  0  0  0
    6.2230    7.8280   56.2270 O   0  0  0  0  0
    7.3050    9.1990   57.7590 C   0  0  0  0  0
    6.5800    8.2160   58.4950 O   0  0  0  0  0
    7.0883    9.6264   55.6263 H   0  0  0  0  0
    8.2374    8.2952   56.0047 H   0  0  0  0  0
    6.4166    7.1015   56.8059 H   0  0  0  0  0
    6.8143   10.1879   57.8808 H   0  0  0  0  0
    8.3433    9.2825   58.1419 H   0  0  0  0  0
    6.4621    8.5340   59.3805 H   0  0  0  0  0
  1  2  1  0  0  0
  1  3  1  0  0  0
  1  5  1  0  0  0
  1  6  1  0  0  0
  2  7  1  0  0  0
  3  4  1  0  0  0
  3  8  1  0  0  0
  3  9  1  0  0  0
  4 10  1  0  0  0
M  END
$$$$
