DMS_1_A_403
  -ISIS-            3D

 10  9  0  0  0  0  0  0  0  0  1 V2000
    6.5880   -0.1160   18.9820 S   0  0  0  0  0
    8.0200   -0.2170   18.5250 O   0  0  0  0  0
    5.6780    0.9070   17.8060 C   0  0  0  0  0
    6.4960    0.9530   20.4520 C   0  0  0  0  0
    4.6394    1.0540   18.1665 H   0  0  0  0  0
    5.6527    0.3980   16.8208 H   0  0  0  0  0
    6.1767    1.8918   17.6969 H   0  0  0  0  0
    5.4347    1.0953   20.7414 H   0  0  0  0  0
    6.9579    1.9371   20.2311 H   0  0  0  0  0
    7.0415    0.4703   21.2885 H   0  0  0  0  0
  1  2  2  0  0  0
  1  3  1  0  0  0
  1  4  1  0  0  0
  3  5  1  0  0  0
  3  6  1  0  0  0
  3  7  1  0  0  0
  4  8  1  0  0  0
  4  9  1  0  0  0
  4 10  1  0  0  0
M  END
$$$$
