@<TRIPOS>MOLECULE
IMD_2_A_402
 9 9 0 0 0
SMALL
NO_CHARGES

@<TRIPOS>ATOM
      1 N1        -17.1130   24.5230   21.8380 N.ar   402  IMD402      0.0000
      2 C2        -16.0340   24.6940   22.5900 C.ar   402  IMD402      0.0000
      3 N3        -15.9220   25.9970   22.8790 N.ar   402  IMD402      0.0000
      4 C4        -16.9460   26.6190   22.2890 C.ar   402  IMD402      0.0000
      5 C5        -17.6980   25.6800   21.6210 C.ar   402  IMD402      0.0000
      6 H         -17.4383   23.6179   21.4756 H      402  IMD402      0.0000
      7 H         -15.3007   23.9708   22.9697 H      402  IMD402      0.0000
      8 H         -17.0571   27.7050   22.3925 H      402  IMD402      0.0000
      9 H         -18.6087   25.8502   21.0284 H      402  IMD402      0.0000
@<TRIPOS>BOND
     1     1     2   ar
     2     1     5   ar
     3     1     6    1
     4     2     3   ar
     5     2     7    1
     6     3     4   ar
     7     4     5   ar
     8     4     8    1
     9     5     9    1

