@<TRIPOS>MOLECULE
EDO_1_A_601
 10 9 0 0 0
SMALL
NO_CHARGES

@<TRIPOS>ATOM
      1 C1         -3.6750  -16.0570   19.5760 C.3    601  EDO601      0.0000
      2 O1         -2.6180  -15.9190   20.5390 O.3    601  EDO601      0.0000
      3 C2         -3.4970  -17.3800   18.8340 C.3    601  EDO601      0.0000
      4 O2         -3.8750  -18.4640   19.7120 O.3    601  EDO601      0.0000
      5 H          -3.6493  -15.2049   18.8638 H      601  EDO601      0.0000
      6 H          -4.6549  -16.0197   20.0947 H      601  EDO601      0.0000
      7 H          -1.9287  -15.3906   20.1588 H      601  EDO601      0.0000
      8 H          -2.4521  -17.5168   18.4862 H      601  EDO601      0.0000
      9 H          -4.1507  -17.4097   17.9379 H      601  EDO601      0.0000
     10 H          -3.3779  -18.3495   20.5130 H      601  EDO601      0.0000
@<TRIPOS>BOND
     1     1     2    1
     2     1     3    1
     3     1     5    1
     4     1     6    1
     5     2     7    1
     6     3     4    1
     7     3     8    1
     8     3     9    1
     9     4    10    1

