@<TRIPOS>MOLECULE
EDO_1_L_302
 10 9 0 0 0
SMALL
NO_CHARGES

@<TRIPOS>ATOM
      1 C1        -19.8540  -11.4310   19.6070 C.3    302  EDO302      0.0000
      2 O1        -21.1410  -10.8590   19.2840 O.3    302  EDO302      0.0000
      3 C2        -19.1060  -10.7230   20.7310 C.3    302  EDO302      0.0000
      4 O2        -17.6980  -10.8410   20.4610 O.3    302  EDO302      0.0000
      5 H         -19.2472  -11.3947   18.6775 H      302  EDO302      0.0000
      6 H         -19.9751  -12.5090   19.8459 H      302  EDO302      0.0000
      7 H         -21.7558  -11.1179   19.9578 H      302  EDO302      0.0000
      8 H         -19.3392  -11.1773   21.7154 H      302  EDO302      0.0000
      9 H         -19.3862   -9.6497   20.7821 H      302  EDO302      0.0000
     10 H         -17.4507  -10.1551   19.8549 H      302  EDO302      0.0000
@<TRIPOS>BOND
     1     1     2    1
     2     1     3    1
     3     1     5    1
     4     1     6    1
     5     2     7    1
     6     3     4    1
     7     3     8    1
     8     3     9    1
     9     4    10    1

