@<TRIPOS>MOLECULE
EDO_1_N_301
 10 9 0 0 0
SMALL
NO_CHARGES

@<TRIPOS>ATOM
      1 C1          5.6210  -66.8460   21.0690 C.3    301  EDO301      0.0000
      2 O1          4.3290  -67.2900   21.5460 O.3    301  EDO301      0.0000
      3 C2          6.4210  -68.0940   20.6780 C.3    301  EDO301      0.0000
      4 O2          5.8680  -68.7560   19.5210 O.3    301  EDO301      0.0000
      5 H           6.1321  -66.2868   21.8793 H      301  EDO301      0.0000
      6 H           5.4949  -66.1588   20.2069 H      301  EDO301      0.0000
      7 H           3.9610  -67.8324   20.8584 H      301  EDO301      0.0000
      8 H           6.4596  -68.8062   21.5295 H      301  EDO301      0.0000
      9 H           7.4691  -67.8012   20.4543 H      301  EDO301      0.0000
     10 H           6.4057  -69.5126   19.3288 H      301  EDO301      0.0000
@<TRIPOS>BOND
     1     1     2    1
     2     1     3    1
     3     1     5    1
     4     1     6    1
     5     2     7    1
     6     3     4    1
     7     3     8    1
     8     3     9    1
     9     4    10    1

