EDO_1_M_301
  -ISIS-            3D

 10  9  0  0  0  0  0  0  0  0  1 V2000
    3.1720  -56.0290   30.4810 C   0  0  0  0  0
    1.7860  -55.8080   30.7500 O   0  0  0  0  0
    4.0110  -54.8370   30.9250 C   0  0  0  0  0
    3.8100  -53.7280   30.0440 O   0  0  0  0  0
    3.3175  -56.2356   29.3999 H   0  0  0  0  0
    3.4908  -56.9402   31.0287 H   0  0  0  0  0
    1.5508  -54.9993   30.3116 H   0  0  0  0  0
    5.0870  -55.1135   30.9166 H   0  0  0  0  0
    3.7540  -54.5452   31.9651 H   0  0  0  0  0
    4.3506  -53.0090   30.3433 H   0  0  0  0  0
  1  2  1  0  0  0
  1  3  1  0  0  0
  1  5  1  0  0  0
  1  6  1  0  0  0
  2  7  1  0  0  0
  3  4  1  0  0  0
  3  8  1  0  0  0
  3  9  1  0  0  0
  4 10  1  0  0  0
M  END
$$$$
