@<TRIPOS>MOLECULE
EDO_1_N_303
 10 9 0 0 0
SMALL
NO_CHARGES

@<TRIPOS>ATOM
      1 C1         -4.0960  -59.5390    0.3760 C.3    303  EDO303      0.0000
      2 O1         -3.6660  -58.9040    1.5900 O.3    303  EDO303      0.0000
      3 C2         -3.3410  -58.9340   -0.8150 C.3    303  EDO303      0.0000
      4 O2         -1.9320  -59.0930   -0.6160 O.3    303  EDO303      0.0000
      5 H          -5.1903  -59.3990    0.2518 H      303  EDO303      0.0000
      6 H          -3.9012  -60.6310    0.4344 H      303  EDO303      0.0000
      7 H          -3.9834  -59.4162    2.3222 H      303  EDO303      0.0000
      8 H          -3.5873  -57.8553   -0.9130 H      303  EDO303      0.0000
      9 H          -3.6419  -59.4350   -1.7589 H      303  EDO303      0.0000
     10 H          -1.4786  -58.5526   -1.2497 H      303  EDO303      0.0000
@<TRIPOS>BOND
     1     1     2    1
     2     1     3    1
     3     1     5    1
     4     1     6    1
     5     2     7    1
     6     3     4    1
     7     3     8    1
     8     3     9    1
     9     4    10    1

