@<TRIPOS>MOLECULE
EDO_1_M_304
 10 9 0 0 0
SMALL
NO_CHARGES

@<TRIPOS>ATOM
      1 C1        -15.6220  -77.0880   30.3740 C.3    304  EDO304      0.0000
      2 O1        -15.3610  -75.7260   30.7320 O.3    304  EDO304      0.0000
      3 C2        -14.3550  -77.7040   29.7590 C.3    304  EDO304      0.0000
      4 O2        -13.2900  -77.9530   30.6950 O.3    304  EDO304      0.0000
      5 H         -16.4688  -77.1333   29.6568 H      304  EDO304      0.0000
      6 H         -15.9269  -77.6521   31.2792 H      304  EDO304      0.0000
      7 H         -15.5306  -75.1766   29.9780 H      304  EDO304      0.0000
      8 H         -13.9739  -77.0566   28.9412 H      304  EDO304      0.0000
      9 H         -14.6190  -78.6731   29.2857 H      304  EDO304      0.0000
     10 H         -13.1831  -77.1570   31.2011 H      304  EDO304      0.0000
@<TRIPOS>BOND
     1     1     2    1
     2     1     3    1
     3     1     5    1
     4     1     6    1
     5     2     7    1
     6     3     4    1
     7     3     8    1
     8     3     9    1
     9     4    10    1

