DMS_1_A_403
  -ISIS-            3D

 10  9  0  0  0  0  0  0  0  0  1 V2000
    2.1740  -19.1040    8.2210 S   0  0  0  0  0
    3.3670  -18.5990    8.9780 O   0  0  0  0  0
    0.7540  -18.2550    8.8760 C   0  0  0  0  0
    1.8300  -20.7160    8.8920 C   0  0  0  0  0
   -0.1738  -18.6956    8.4569 H   0  0  0  0  0
    0.8034  -17.1844    8.5899 H   0  0  0  0  0
    0.7339  -18.3330    9.9821 H   0  0  0  0  0
    0.8753  -21.0997    8.4773 H   0  0  0  0  0
    1.7598  -20.6672    9.9977 H   0  0  0  0  0
    2.6474  -21.4115    8.6119 H   0  0  0  0  0
  1  2  2  0  0  0
  1  3  1  0  0  0
  1  4  1  0  0  0
  3  5  1  0  0  0
  3  6  1  0  0  0
  3  7  1  0  0  0
  4  8  1  0  0  0
  4  9  1  0  0  0
  4 10  1  0  0  0
M  END
$$$$
