@<TRIPOS>MOLECULE
DMS_2_A_403
 10 9 0 0 0
SMALL
NO_CHARGES

@<TRIPOS>ATOM
      1 S          -2.1740  -19.1040   -8.2210 S.o    403  DMS403      0.0000
      2 O          -3.3670  -18.5990   -8.9780 O.2    403  DMS403      0.0000
      3 C1         -0.7540  -18.2550   -8.8760 C.3    403  DMS403      0.0000
      4 C2         -1.8300  -20.7160   -8.8920 C.3    403  DMS403      0.0000
      5 H           0.1738  -18.6956   -8.4569 H      403  DMS403      0.0000
      6 H          -0.8034  -17.1844   -8.5899 H      403  DMS403      0.0000
      7 H          -0.7339  -18.3330   -9.9821 H      403  DMS403      0.0000
      8 H          -0.8753  -21.0997   -8.4773 H      403  DMS403      0.0000
      9 H          -1.7598  -20.6672   -9.9977 H      403  DMS403      0.0000
     10 H          -2.6474  -21.4115   -8.6119 H      403  DMS403      0.0000
@<TRIPOS>BOND
     1     1     2    2
     2     1     3    1
     3     1     4    1
     4     3     5    1
     5     3     6    1
     6     3     7    1
     7     4     8    1
     8     4     9    1
     9     4    10    1

