DMS_1_A_1005
  -ISIS-            3D

 10  9  0  0  0  0  0  0  0  0  1 V2000
   13.0140    5.0350   23.6200 S   0  0  0  0  0
   12.0960    6.2120   23.8990 O   0  0  0  0  0
   13.9200    5.4340   22.1380 C   0  0  0  0  0
   11.9730    3.7730   22.9320 C   0  0  0  0  0
   14.4971    4.5490   21.8005 H   0  0  0  0  0
   14.6262    6.2619   22.3533 H   0  0  0  0  0
   13.2246    5.7518   21.3341 H   0  0  0  0  0
   12.5942    2.9282   22.5707 H   0  0  0  0  0
   11.3763    4.1798   22.0898 H   0  0  0  0  0
   11.2829    3.3996   23.7161 H   0  0  0  0  0
  1  2  2  0  0  0
  1  3  1  0  0  0
  1  4  1  0  0  0
  3  5  1  0  0  0
  3  6  1  0  0  0
  3  7  1  0  0  0
  4  8  1  0  0  0
  4  9  1  0  0  0
  4 10  1  0  0  0
M  END
$$$$
