@<TRIPOS>MOLECULE
DMS_1_A_1003
 10 9 0 0 0
SMALL
NO_CHARGES

@<TRIPOS>ATOM
      1 S           6.1840   -1.0500   -6.2750 S.o   1003  DMS1003      0.0000
      2 O           7.1710   -0.8870   -7.4060 O.2   1003  DMS1003      0.0000
      3 C1          7.1100   -0.8800   -4.7580 C.3   1003  DMS1003      0.0000
      4 C2          5.8320   -2.7910   -6.1540 C.3   1003  DMS1003      0.0000
      5 H           6.4606   -1.1240   -3.8923 H     1003  DMS1003      0.0000
      6 H           7.4614    0.1675   -4.6595 H     1003  DMS1003      0.0000
      7 H           7.9882   -1.5573   -4.7652 H     1003  DMS1003      0.0000
      8 H           5.2148   -2.9880   -5.2535 H     1003  DMS1003      0.0000
      9 H           6.7750   -3.3714   -6.0908 H     1003  DMS1003      0.0000
     10 H           5.2681   -3.1139   -7.0530 H     1003  DMS1003      0.0000
@<TRIPOS>BOND
     1     1     2    2
     2     1     3    1
     3     1     4    1
     4     3     5    1
     5     3     6    1
     6     3     7    1
     7     4     8    1
     8     4     9    1
     9     4    10    1

