@<TRIPOS>MOLECULE
DMS_1_A_1002
 10 9 0 0 0
SMALL
NO_CHARGES

@<TRIPOS>ATOM
      1 S           7.0840  -28.2580   21.3130 S.o   1002  DMS1002      0.0000
      2 O           7.8750  -27.2550   22.1160 O.2   1002  DMS1002      0.0000
      3 C1          5.8100  -28.8350   22.4020 C.3   1002  DMS1002      0.0000
      4 C2          6.0640  -27.3720   20.1840 C.3   1002  DMS1002      0.0000
      5 H           5.1094  -29.4923   21.8476 H     1002  DMS1002      0.0000
      6 H           5.2511  -27.9787   22.8322 H     1002  DMS1002      0.0000
      7 H           6.2687  -29.4174   23.2272 H     1002  DMS1002      0.0000
      8 H           5.3658  -28.0696   19.6778 H     1002  DMS1002      0.0000
      9 H           6.7014  -26.8863   19.4171 H     1002  DMS1002      0.0000
     10 H           5.4839  -26.5907   20.7166 H     1002  DMS1002      0.0000
@<TRIPOS>BOND
     1     1     2    2
     2     1     3    1
     3     1     4    1
     4     3     5    1
     5     3     6    1
     6     3     7    1
     7     4     8    1
     8     4     9    1
     9     4    10    1

