@<TRIPOS>MOLECULE
DMS_1_A_1004
 10 9 0 0 0
SMALL
NO_CHARGES

@<TRIPOS>ATOM
      1 S           2.4840  -18.8440    8.0800 S.o   1004  DMS1004      0.0000
      2 O           3.7810  -18.8510    8.8650 O.2   1004  DMS1004      0.0000
      3 C1          1.2570  -18.1600    9.1720 C.3   1004  DMS1004      0.0000
      4 C2          1.8970  -20.5180    8.0970 C.3   1004  DMS1004      0.0000
      5 H           0.2498  -18.2626    8.7181 H     1004  DMS1004      0.0000
      6 H           1.4694  -17.0826    9.3317 H     1004  DMS1004      0.0000
      7 H           1.2768  -18.6805   10.1510 H     1004  DMS1004      0.0000
      8 H           0.8741  -20.5631    7.6698 H     1004  DMS1004      0.0000
      9 H           1.8828  -20.9133    9.1329 H     1004  DMS1004      0.0000
     10 H           2.5702  -21.1483    7.4798 H     1004  DMS1004      0.0000
@<TRIPOS>BOND
     1     1     2    2
     2     1     3    1
     3     1     4    1
     4     3     5    1
     5     3     6    1
     6     3     7    1
     7     4     8    1
     8     4     9    1
     9     4    10    1

