DMS_1_A_1002
  -ISIS-            3D

 10  9  0  0  0  0  0  0  0  0  1 V2000
    7.0840  -28.2580   21.3130 S   0  0  0  0  0
    7.8750  -27.2550   22.1160 O   0  0  0  0  0
    5.8100  -28.8350   22.4020 C   0  0  0  0  0
    6.0640  -27.3720   20.1840 C   0  0  0  0  0
    5.1094  -29.4923   21.8476 H   0  0  0  0  0
    5.2511  -27.9787   22.8322 H   0  0  0  0  0
    6.2687  -29.4174   23.2272 H   0  0  0  0  0
    5.3658  -28.0696   19.6778 H   0  0  0  0  0
    6.7014  -26.8863   19.4171 H   0  0  0  0  0
    5.4839  -26.5907   20.7166 H   0  0  0  0  0
  1  2  2  0  0  0
  1  3  1  0  0  0
  1  4  1  0  0  0
  3  5  1  0  0  0
  3  6  1  0  0  0
  3  7  1  0  0  0
  4  8  1  0  0  0
  4  9  1  0  0  0
  4 10  1  0  0  0
M  END
$$$$
