DMS_1_A_202
  -ISIS-            3D

 10  9  0  0  0  0  0  0  0  0  1 V2000
   -0.7750    9.5760   -7.8180 S   0  0  0  0  0
   -0.8200    9.4490   -9.2370 O   0  0  0  0  0
    0.3330    8.3530   -7.2670 C   0  0  0  0  0
   -2.1820    8.7430   -7.2520 C   0  0  0  0  0
    0.2933    8.2674   -6.1617 H   0  0  0  0  0
    1.3654    8.6382   -7.5561 H   0  0  0  0  0
    0.1011    7.3677   -7.7212 H   0  0  0  0  0
   -2.1512    8.6404   -6.1479 H   0  0  0  0  0
   -2.2662    7.7368   -7.7119 H   0  0  0  0  0
   -3.0864    9.3272   -7.5197 H   0  0  0  0  0
  1  2  2  0  0  0
  1  3  1  0  0  0
  1  4  1  0  0  0
  3  5  1  0  0  0
  3  6  1  0  0  0
  3  7  1  0  0  0
  4  8  1  0  0  0
  4  9  1  0  0  0
  4 10  1  0  0  0
M  END
$$$$
