EVE_1_A_201
  -ISIS-            3D

 20 21  0  0  0  0  0  0  0  0  1 V2000
  -52.5530  -31.2160    7.8080 N   0  0  0  0  0
  -52.6120  -29.5910    7.2840 S   0  0  0  0  0
  -50.0560  -29.3570    6.5280 N   0  0  0  0  0
  -52.3860  -28.6970    8.2780 O   0  0  0  0  0
  -51.2690  -29.3590    6.1390 C   0  0  0  0  0
  -51.3350  -29.1240    4.8870 N   0  0  0  0  0
  -53.8690  -29.4530    6.6830 O   0  0  0  0  0
  -47.8610  -29.0690    5.3730 C   0  0  0  0  0
  -47.3830  -28.8490    4.1230 C   0  0  0  0  0
  -48.2200  -28.7060    3.0670 C   0  0  0  0  0
  -49.5980  -28.8270    3.2310 C   0  0  0  0  0
  -50.1130  -29.0100    4.4650 C   0  0  0  0  0
  -49.2690  -29.1500    5.5340 C   0  0  0  0  0
  -49.7369  -29.4908    7.4954 H   0  0  0  0  0
  -47.1895  -29.1841    6.2389 H   0  0  0  0  0
  -46.2928  -28.7781    3.9653 H   0  0  0  0  0
  -47.8088  -28.5130    2.0612 H   0  0  0  0  0
  -50.2679  -28.7487    2.3587 H   0  0  0  0  0
  -53.4117  -31.7084    7.5654 H   0  0  0  0  0
  -52.3669  -31.2685    8.8088 H   0  0  0  0  0
  1  2  1  0  0  0
  1 19  1  0  0  0
  1 20  1  0  0  0
  2  4  2  0  0  0
  2  5  1  0  0  0
  2  7  2  0  0  0
  3  5  2  0  0  0
  3 13  1  0  0  0
  3 14  1  0  0  0
  5  6  1  0  0  0
  6 12  2  0  0  0
  8  9  2  0  0  0
  8 13  1  0  0  0
  8 15  1  0  0  0
  9 10  1  0  0  0
  9 16  1  0  0  0
 10 11  2  0  0  0
 10 17  1  0  0  0
 11 12  1  0  0  0
 11 18  1  0  0  0
 12 13  1  0  0  0
M  END
$$$$
