@<TRIPOS>MOLECULE
BVF_1_A_201
 16 16 0 0 0
SMALL
NO_CHARGES

@<TRIPOS>ATOM
      1 C1         12.4390   23.4240    7.9180 C.ar   201  BVF201      0.0000
      2 C2         12.3510   24.5330    8.7440 C.ar   201  BVF201      0.0000
      3 C3         11.5010   24.4720    9.8390 C.ar   201  BVF201      0.0000
      4 C4         10.7720   23.3140   10.0710 C.ar   201  BVF201      0.0000
      5 C5         10.9250   22.2540    9.1910 C.ar   201  BVF201      0.0000
      6 N6         11.7390   22.3320    8.1560 N.ar   201  BVF201      0.0000
      7 N7         10.1770   21.0310    9.4170 N.3    201  BVF201      0.0000
      8 C8         11.3680   25.6670   10.7790 C.3    201  BVF201      0.0000
      9 H          13.1044   23.4377    7.0387 H      201  BVF201      0.0000
     10 H          12.9422   25.4394    8.5341 H      201  BVF201      0.0000
     11 H          10.0895   23.2369   10.9321 H      201  BVF201      0.0000
     12 H           9.5512   20.9976   10.2318 H      201  BVF201      0.0000
     13 H          10.3496   20.2950    8.7211 H      201  BVF201      0.0000
     14 H          10.6529   25.4711   11.6078 H      201  BVF201      0.0000
     15 H          11.0052   26.5648   10.2311 H      201  BVF201      0.0000
     16 H          12.3487   25.9220   11.2384 H      201  BVF201      0.0000
@<TRIPOS>BOND
     1     1     2   ar
     2     1     6   ar
     3     1     9    1
     4     2     3   ar
     5     2    10    1
     6     3     4   ar
     7     3     8    1
     8     4     5   ar
     9     4    11    1
    10     5     6   ar
    11     5     7    1
    12     7    12    1
    13     7    13    1
    14     8    14    1
    15     8    15    1
    16     8    16    1

