DMS_2_A_1003
  -ISIS-            3D

 10  9  0  0  0  0  0  0  0  0  1 V2000
   -6.1720   -1.2120    6.0670 S   0  0  0  0  0
   -6.8030   -0.8330    7.3460 O   0  0  0  0  0
   -7.5140   -1.1410    4.9290 C   0  0  0  0  0
   -5.9720   -2.9570    6.1980 C   0  0  0  0  0
   -7.2046   -1.5769    3.9571 H   0  0  0  0  0
   -7.8065   -0.0831    4.7683 H   0  0  0  0  0
   -8.3875   -1.7021    5.3202 H   0  0  0  0  0
   -5.6727   -3.3748    5.2150 H   0  0  0  0  0
   -6.9182   -3.4342    6.5262 H   0  0  0  0  0
   -5.1776   -3.1828    6.9386 H   0  0  0  0  0
  1  2  2  0  0  0
  1  3  1  0  0  0
  1  4  1  0  0  0
  3  5  1  0  0  0
  3  6  1  0  0  0
  3  7  1  0  0  0
  4  8  1  0  0  0
  4  9  1  0  0  0
  4 10  1  0  0  0
M  END
$$$$
