@<TRIPOS>MOLECULE
DMS_1_A_1003
 10 9 0 0 0
SMALL
NO_CHARGES

@<TRIPOS>ATOM
      1 S           6.1720   -1.2120   -6.0670 S.o   1003  DMS1003      0.0000
      2 O           6.8030   -0.8330   -7.3460 O.2   1003  DMS1003      0.0000
      3 C1          7.5140   -1.1410   -4.9290 C.3   1003  DMS1003      0.0000
      4 C2          5.9720   -2.9570   -6.1980 C.3   1003  DMS1003      0.0000
      5 H           7.2046   -1.5769   -3.9571 H     1003  DMS1003      0.0000
      6 H           7.8065   -0.0831   -4.7683 H     1003  DMS1003      0.0000
      7 H           8.3875   -1.7021   -5.3202 H     1003  DMS1003      0.0000
      8 H           5.6727   -3.3748   -5.2150 H     1003  DMS1003      0.0000
      9 H           6.9182   -3.4342   -6.5262 H     1003  DMS1003      0.0000
     10 H           5.1776   -3.1828   -6.9386 H     1003  DMS1003      0.0000
@<TRIPOS>BOND
     1     1     2    2
     2     1     3    1
     3     1     4    1
     4     3     5    1
     5     3     6    1
     6     3     7    1
     7     4     8    1
     8     4     9    1
     9     4    10    1

