@<TRIPOS>MOLECULE
DMS_2_A_1006
 10 9 0 0 0
SMALL
NO_CHARGES

@<TRIPOS>ATOM
      1 S         -20.8500   14.6500   -7.9810 S.o   1006  DMS1006      0.0000
      2 O         -21.7460   15.7860   -8.2460 O.2   1006  DMS1006      0.0000
      3 C1        -21.2390   13.4550   -9.2260 C.3   1006  DMS1006      0.0000
      4 C2        -21.5580   13.8330   -6.5810 C.3   1006  DMS1006      0.0000
      5 H         -20.7208   12.4997   -9.0045 H     1006  DMS1006      0.0000
      6 H         -20.8965   13.8271  -10.2132 H     1006  DMS1006      0.0000
      7 H         -22.3337   13.2791   -9.2659 H     1006  DMS1006      0.0000
      8 H         -21.0358   12.8706   -6.4041 H     1006  DMS1006      0.0000
      9 H         -22.6375   13.6401   -6.7495 H     1006  DMS1006      0.0000
     10 H         -21.4412   14.4734   -5.6829 H     1006  DMS1006      0.0000
@<TRIPOS>BOND
     1     1     2    2
     2     1     3    1
     3     1     4    1
     4     3     5    1
     5     3     6    1
     6     3     7    1
     7     4     8    1
     8     4     9    1
     9     4    10    1

