@<TRIPOS>MOLECULE
DMS_2_A_1002
 10 9 0 0 0
SMALL
NO_CHARGES

@<TRIPOS>ATOM
      1 S          -7.0950  -28.2160  -21.5940 S.o   1002  DMS1002      0.0000
      2 O          -7.7940  -27.1800  -22.3590 O.2   1002  DMS1002      0.0000
      3 C1         -5.7510  -28.7280  -22.5910 C.3   1002  DMS1002      0.0000
      4 C2         -6.2080  -27.3460  -20.3250 C.3   1002  DMS1002      0.0000
      5 H          -5.0921  -29.4090  -22.0146 H     1002  DMS1002      0.0000
      6 H          -5.1632  -27.8507  -22.9314 H     1002  DMS1002      0.0000
      7 H          -6.1348  -29.2707  -23.4790 H     1002  DMS1002      0.0000
      8 H          -5.5407  -28.0484  -19.7851 H     1002  DMS1002      0.0000
      9 H          -6.9298  -26.9111  -19.6036 H     1002  DMS1002      0.0000
     10 H          -5.6020  -26.5291  -20.7682 H     1002  DMS1002      0.0000
@<TRIPOS>BOND
     1     1     2    2
     2     1     3    1
     3     1     4    1
     4     3     5    1
     5     3     6    1
     6     3     7    1
     7     4     8    1
     8     4     9    1
     9     4    10    1

