DMS_1_A_1003
  -ISIS-            3D

 10  9  0  0  0  0  0  0  0  0  1 V2000
    6.1910   -1.2530   -6.4590 S   0  0  0  0  0
    6.8840   -1.3660   -7.7470 O   0  0  0  0  0
    7.4550   -0.9010   -5.2700 C   0  0  0  0  0
    5.8120   -2.9080   -6.0060 C   0  0  0  0  0
    7.0320   -0.9536   -4.2460 H   0  0  0  0  0
    7.8488    0.1214   -5.4429 H   0  0  0  0  0
    8.2865   -1.6296   -5.3624 H   0  0  0  0  0
    5.4164   -2.9331   -4.9701 H   0  0  0  0  0
    6.7184   -3.5448   -6.0676 H   0  0  0  0  0
    5.0400   -3.3117   -6.6926 H   0  0  0  0  0
  1  2  2  0  0  0
  1  3  1  0  0  0
  1  4  1  0  0  0
  3  5  1  0  0  0
  3  6  1  0  0  0
  3  7  1  0  0  0
  4  8  1  0  0  0
  4  9  1  0  0  0
  4 10  1  0  0  0
M  END
$$$$
