DMS_1_A_1002
  -ISIS-            3D

 10  9  0  0  0  0  0  0  0  0  1 V2000
    7.0950  -28.2160   21.5940 S   0  0  0  0  0
    7.7940  -27.1800   22.3590 O   0  0  0  0  0
    5.7510  -28.7280   22.5910 C   0  0  0  0  0
    6.2080  -27.3460   20.3250 C   0  0  0  0  0
    5.0921  -29.4090   22.0146 H   0  0  0  0  0
    5.1632  -27.8507   22.9314 H   0  0  0  0  0
    6.1348  -29.2707   23.4790 H   0  0  0  0  0
    5.5407  -28.0484   19.7851 H   0  0  0  0  0
    6.9298  -26.9111   19.6036 H   0  0  0  0  0
    5.6020  -26.5291   20.7682 H   0  0  0  0  0
  1  2  2  0  0  0
  1  3  1  0  0  0
  1  4  1  0  0  0
  3  5  1  0  0  0
  3  6  1  0  0  0
  3  7  1  0  0  0
  4  8  1  0  0  0
  4  9  1  0  0  0
  4 10  1  0  0  0
M  END
$$$$
