@<TRIPOS>MOLECULE
DMS_2_A_1004
 10 9 0 0 0
SMALL
NO_CHARGES

@<TRIPOS>ATOM
      1 S          -2.4090  -19.0910   -8.4310 S.o   1004  DMS1004      0.0000
      2 O          -3.6260  -18.7250   -9.1720 O.2   1004  DMS1004      0.0000
      3 C1         -1.1210  -18.1930   -9.2470 C.3   1004  DMS1004      0.0000
      4 C2         -2.0250  -20.7210   -9.0390 C.3   1004  DMS1004      0.0000
      5 H          -0.1327  -18.5392   -8.8814 H     1004  DMS1004      0.0000
      6 H          -1.2265  -17.1119   -9.0222 H     1004  DMS1004      0.0000
      7 H          -1.1791  -18.3411  -10.3451 H     1004  DMS1004      0.0000
      8 H          -1.0220  -21.0281   -8.6785 H     1004  DMS1004      0.0000
      9 H          -2.0377  -20.7341  -10.1484 H     1004  DMS1004      0.0000
     10 H          -2.7783  -21.4416   -8.6596 H     1004  DMS1004      0.0000
@<TRIPOS>BOND
     1     1     2    2
     2     1     3    1
     3     1     4    1
     4     3     5    1
     5     3     6    1
     6     3     7    1
     7     4     8    1
     8     4     9    1
     9     4    10    1

