@<TRIPOS>MOLECULE
DMS_2_A_1003
 10 9 0 0 0
SMALL
NO_CHARGES

@<TRIPOS>ATOM
      1 S          -6.1910   -1.2530    6.4590 S.o   1003  DMS1003      0.0000
      2 O          -6.8840   -1.3660    7.7470 O.2   1003  DMS1003      0.0000
      3 C1         -7.4550   -0.9010    5.2700 C.3   1003  DMS1003      0.0000
      4 C2         -5.8120   -2.9080    6.0060 C.3   1003  DMS1003      0.0000
      5 H          -7.0320   -0.9536    4.2460 H     1003  DMS1003      0.0000
      6 H          -7.8488    0.1214    5.4429 H     1003  DMS1003      0.0000
      7 H          -8.2865   -1.6296    5.3624 H     1003  DMS1003      0.0000
      8 H          -5.4164   -2.9331    4.9701 H     1003  DMS1003      0.0000
      9 H          -6.7184   -3.5448    6.0676 H     1003  DMS1003      0.0000
     10 H          -5.0400   -3.3117    6.6926 H     1003  DMS1003      0.0000
@<TRIPOS>BOND
     1     1     2    2
     2     1     3    1
     3     1     4    1
     4     3     5    1
     5     3     6    1
     6     3     7    1
     7     4     8    1
     8     4     9    1
     9     4    10    1

