DMS_2_A_1004
  -ISIS-            3D

 10  9  0  0  0  0  0  0  0  0  1 V2000
   -2.4090  -19.0910   -8.4310 S   0  0  0  0  0
   -3.6260  -18.7250   -9.1720 O   0  0  0  0  0
   -1.1210  -18.1930   -9.2470 C   0  0  0  0  0
   -2.0250  -20.7210   -9.0390 C   0  0  0  0  0
   -0.1327  -18.5392   -8.8814 H   0  0  0  0  0
   -1.2265  -17.1119   -9.0222 H   0  0  0  0  0
   -1.1791  -18.3411  -10.3451 H   0  0  0  0  0
   -1.0220  -21.0281   -8.6785 H   0  0  0  0  0
   -2.0377  -20.7341  -10.1484 H   0  0  0  0  0
   -2.7783  -21.4416   -8.6596 H   0  0  0  0  0
  1  2  2  0  0  0
  1  3  1  0  0  0
  1  4  1  0  0  0
  3  5  1  0  0  0
  3  6  1  0  0  0
  3  7  1  0  0  0
  4  8  1  0  0  0
  4  9  1  0  0  0
  4 10  1  0  0  0
M  END
$$$$
