@<TRIPOS>MOLECULE
K36_1_A_401
 60 61 0 0 0
SMALL
NO_CHARGES

@<TRIPOS>ATOM
      1 C7        -13.9890   16.4560    0.0490 C.3    401  K36401      0.0000
      2 O8        -14.7890   15.5330   -0.6770 O.3    401  K36401      0.0000
      3 C9        -15.1960   14.4000    0.0630 C.2    401  K36401      0.0000
      4 O10       -15.1260   14.3940    1.2450 O.2    401  K36401      0.0000
      5 C1        -12.4910   16.2430   -0.2430 C.ar   401  K36401      0.0000
      6 C2        -11.5440   17.0420    0.3940 C.ar   401  K36401      0.0000
      7 C3        -10.1840   16.8790    0.1400 C.ar   401  K36401      0.0000
      8 C4         -9.7720   15.8970   -0.7480 C.ar   401  K36401      0.0000
      9 C5        -10.7150   15.0880   -1.3860 C.ar   401  K36401      0.0000
     10 C6        -12.0740   15.2590   -1.1400 C.ar   401  K36401      0.0000
     11 N11       -15.7070   13.2200   -0.6410 N.am   401  K36401      0.0000
     12 C12       -15.8070   11.9770    0.0980 C.3    401  K36401      0.0000
     13 C17       -14.3850   11.5450    0.4650 C.2    401  K36401      0.0000
     14 O18       -13.5010   11.6630   -0.3190 O.2    401  K36401      0.0000
     15 C13       -16.4420   10.8910   -0.7390 C.3    401  K36401      0.0000
     16 C14       -17.9180   11.2350   -0.9430 C.3    401  K36401      0.0000
     17 C15       -18.6330   11.2510    0.4030 C.3    401  K36401      0.0000
     18 C16       -18.5770   10.2140   -1.8780 C.3    401  K36401      0.0000
     19 N19       -14.1530   10.9980    1.8090 N.am   401  K36401      0.0000
     20 C20       -12.8200   10.5610    2.2290 C.3    401  K36401      0.0000
     21 C21       -12.9940    9.0760    2.5670 C.3    401  K36401      0.0000
     22 O22       -11.7530    8.4480    2.6910 O.3    401  K36401      0.0000
     23 C24       -12.3510   11.3800    3.4460 C.3    401  K36401      0.0000
     24 C25       -11.9560   12.8450    3.0340 C.3    401  K36401      0.0000
     25 C26       -10.7300   12.8160    2.1010 C.3    401  K36401      0.0000
     26 C27       -10.0770   14.1290    2.2810 C.3    401  K36401      0.0000
     27 N28       -10.3870   14.5250    3.7070 N.am   401  K36401      0.0000
     28 C29       -11.5680   13.6910    4.1410 C.2    401  K36401      0.0000
     29 O30       -12.0810   13.7580    5.2070 O.2    401  K36401      0.0000
     30 H         -14.1633   16.4347    1.1432 H      401  K36401      0.0000
     31 H         -14.2559   17.4832   -0.2777 H      401  K36401      0.0000
     32 H         -11.8695   17.8185    1.1074 H      401  K36401      0.0000
     33 H          -9.4426   17.5226    0.6434 H      401  K36401      0.0000
     34 H          -8.6972   15.7544   -0.9532 H      401  K36401      0.0000
     35 H         -10.3812   14.3076   -2.0911 H      401  K36401      0.0000
     36 H         -12.7995   14.6099   -1.6566 H      401  K36401      0.0000
     37 H         -15.8996   13.2848   -1.6481 H      401  K36401      0.0000
     38 H         -16.3617   12.1285    1.0492 H      401  K36401      0.0000
     39 H         -16.3457    9.9048   -0.2288 H      401  K36401      0.0000
     40 H         -15.9206   10.8010   -1.7196 H      401  K36401      0.0000
     41 H         -18.0151   12.2414   -1.4165 H      401  K36401      0.0000
     42 H         -19.7370   11.2965    0.2679 H      401  K36401      0.0000
     43 H         -18.3763   12.1348    1.0256 H      401  K36401      0.0000
     44 H         -18.4246   10.3386    1.0054 H      401  K36401      0.0000
     45 H         -19.6464   10.4589   -2.0663 H      401  K36401      0.0000
     46 H         -18.5429    9.1837   -1.4583 H      401  K36401      0.0000
     47 H         -18.0741   10.1830   -2.8705 H      401  K36401      0.0000
     48 H         -14.9417   10.9367    2.4679 H      401  K36401      0.0000
     49 H         -12.0838   10.6480    1.3998 H      401  K36401      0.0000
     50 H         -13.5830    8.5608    1.7761 H      401  K36401      0.0000
     51 H         -13.5592    8.9535    3.5152 H      401  K36401      0.0000
     52 H         -11.4004    8.2841    1.8261 H      401  K36401      0.0000
     53 H         -11.4739   10.8848    3.9222 H      401  K36401      0.0000
     54 H         -13.1565   11.4087    4.2152 H      401  K36401      0.0000
     55 H         -12.8117   13.3310    2.5081 H      401  K36401      0.0000
     56 H         -11.0059   12.6369    1.0377 H      401  K36401      0.0000
     57 H         -10.0308   12.0055    2.4124 H      401  K36401      0.0000
     58 H         -10.5167   14.8694    1.5836 H      401  K36401      0.0000
     59 H          -8.9825   14.0798    2.0858 H      401  K36401      0.0000
     60 H          -9.9168   15.2228    4.2955 H      401  K36401      0.0000
@<TRIPOS>BOND
     1     1     2    1
     2     1     5    1
     3     1    30    1
     4     1    31    1
     5     2     3    1
     6     3     4    2
     7     3    11    1
     8     5     6   ar
     9     5    10   ar
    10     6     7   ar
    11     6    32    1
    12     7     8   ar
    13     7    33    1
    14     8     9   ar
    15     8    34    1
    16     9    10   ar
    17     9    35    1
    18    10    36    1
    19    11    12    1
    20    11    37    1
    21    12    13    1
    22    12    15    1
    23    12    38    1
    24    13    14    2
    25    13    19    1
    26    15    16    1
    27    15    39    1
    28    15    40    1
    29    16    17    1
    30    16    18    1
    31    16    41    1
    32    17    42    1
    33    17    43    1
    34    17    44    1
    35    18    45    1
    36    18    46    1
    37    18    47    1
    38    19    20    1
    39    19    48    1
    40    20    21    1
    41    20    23    1
    42    20    49    1
    43    21    22    1
    44    21    50    1
    45    21    51    1
    46    22    52    1
    47    23    24    1
    48    23    53    1
    49    23    54    1
    50    24    25    1
    51    24    28    1
    52    24    55    1
    53    25    26    1
    54    25    56    1
    55    25    57    1
    56    26    27    1
    57    26    58    1
    58    26    59    1
    59    27    28    1
    60    27    60    1
    61    28    29    2

