@<TRIPOS>MOLECULE
DMS_2_A_402
 10 9 0 0 0
SMALL
NO_CHARGES

@<TRIPOS>ATOM
      1 S          -6.1860   -1.2750    6.2650 S.o    402  DMS402      0.0000
      2 O          -7.0110   -0.9060    7.4440 O.2    402  DMS402      0.0000
      3 C1         -7.2090   -0.9900    4.8410 C.3    402  DMS402      0.0000
      4 C2         -6.1790   -3.0380    6.1860 C.3    402  DMS402      0.0000
      5 H          -6.7051   -1.3761    3.9314 H      402  DMS402      0.0000
      6 H          -7.3746    0.1003    4.7216 H      402  DMS402      0.0000
      7 H          -8.1907   -1.4924    4.9617 H      402  DMS402      0.0000
      8 H          -5.6993   -3.3722    5.2434 H      402  DMS402      0.0000
      9 H          -7.2143   -3.4337    6.2339 H      402  DMS402      0.0000
     10 H          -5.6004   -3.4412    7.0422 H      402  DMS402      0.0000
@<TRIPOS>BOND
     1     1     2    2
     2     1     3    1
     3     1     4    1
     4     3     5    1
     5     3     6    1
     6     3     7    1
     7     4     8    1
     8     4     9    1
     9     4    10    1

