@<TRIPOS>MOLECULE
DMS_2_A_401
 10 9 0 0 0
SMALL
NO_CHARGES

@<TRIPOS>ATOM
      1 S          -6.7410  -28.1420  -21.7020 S.o    401  DMS401      0.0000
      2 O          -7.6770  -27.3120  -22.5110 O.2    401  DMS401      0.0000
      3 C1         -5.5100  -28.7440  -22.8370 C.3    401  DMS401      0.0000
      4 C2         -5.6950  -27.0260  -20.8190 C.3    401  DMS401      0.0000
      5 H          -4.7025  -29.2602  -22.2785 H      401  DMS401      0.0000
      6 H          -5.0786  -27.9058  -23.4218 H      401  DMS401      0.0000
      7 H          -5.9792  -29.4667  -23.5356 H      401  DMS401      0.0000
      8 H          -4.8849  -27.5886  -20.3114 H      401  DMS401      0.0000
      9 H          -6.2930  -26.4929  -20.0518 H      401  DMS401      0.0000
     10 H          -5.2505  -26.2804  -21.5098 H      401  DMS401      0.0000
@<TRIPOS>BOND
     1     1     2    2
     2     1     3    1
     3     1     4    1
     4     3     5    1
     5     3     6    1
     6     3     7    1
     7     4     8    1
     8     4     9    1
     9     4    10    1

