@<TRIPOS>MOLECULE
DMS_1_A_403
 10 9 0 0 0
SMALL
NO_CHARGES

@<TRIPOS>ATOM
      1 S           2.3690  -18.9290    8.1300 S.o    403  DMS403      0.0000
      2 O           3.5790  -18.8230    9.0350 O.2    403  DMS403      0.0000
      3 C1          1.0210  -18.2570    9.0860 C.3    403  DMS403      0.0000
      4 C2          1.8710  -20.6250    8.2230 C.3    403  DMS403      0.0000
      5 H           0.0596  -18.4484    8.5670 H      403  DMS403      0.0000
      6 H           1.1586  -17.1613    9.1909 H      403  DMS403      0.0000
      7 H           0.9948  -18.7155   10.0959 H      403  DMS403      0.0000
      8 H           0.8886  -20.7576    7.7254 H      403  DMS403      0.0000
      9 H           1.7967  -20.9518    9.2805 H      403  DMS403      0.0000
     10 H           2.6213  -21.2558    7.7037 H      403  DMS403      0.0000
@<TRIPOS>BOND
     1     1     2    2
     2     1     3    1
     3     1     4    1
     4     3     5    1
     5     3     6    1
     6     3     7    1
     7     4     8    1
     8     4     9    1
     9     4    10    1

