DMS_2_A_401
  -ISIS-            3D

 10  9  0  0  0  0  0  0  0  0  1 V2000
   -6.7410  -28.1420  -21.7020 S   0  0  0  0  0
   -7.6770  -27.3120  -22.5110 O   0  0  0  0  0
   -5.5100  -28.7440  -22.8370 C   0  0  0  0  0
   -5.6950  -27.0260  -20.8190 C   0  0  0  0  0
   -4.7025  -29.2602  -22.2785 H   0  0  0  0  0
   -5.0786  -27.9058  -23.4218 H   0  0  0  0  0
   -5.9792  -29.4667  -23.5356 H   0  0  0  0  0
   -4.8849  -27.5886  -20.3114 H   0  0  0  0  0
   -6.2930  -26.4929  -20.0518 H   0  0  0  0  0
   -5.2505  -26.2804  -21.5098 H   0  0  0  0  0
  1  2  2  0  0  0
  1  3  1  0  0  0
  1  4  1  0  0  0
  3  5  1  0  0  0
  3  6  1  0  0  0
  3  7  1  0  0  0
  4  8  1  0  0  0
  4  9  1  0  0  0
  4 10  1  0  0  0
M  END
$$$$
