@<TRIPOS>MOLECULE
EKZ_1_A_201
 26 26 0 0 0
SMALL
NO_CHARGES

@<TRIPOS>ATOM
      1 CAA       -39.4720   -6.8870    0.9860 C.3    201  EKZ201      0.0000
      2 CAL       -38.9360   -6.2670    2.2680 C.3    201  EKZ201      0.0000
      3 CAB       -38.7520   -4.7770    2.0210 C.3    201  EKZ201      0.0000
      4 CAC       -37.5890   -6.8910    2.6080 C.3    201  EKZ201      0.0000
      5 CAK       -39.8870   -6.4740    3.4530 C.ar   201  EKZ201      0.0000
      6 CAH       -39.8390   -5.6030    4.5100 C.ar   201  EKZ201      0.0000
      7 CAJ       -40.6630   -5.7720    5.5940 C.ar   201  EKZ201      0.0000
      8 OAE       -40.5970   -4.8680    6.6410 O.3    201  EKZ201      0.0000
      9 CAI       -41.5540   -6.8200    5.6520 C.ar   201  EKZ201      0.0000
     10 OAD       -42.4050   -6.9710    6.7670 O.3    201  EKZ201      0.0000
     11 CAF       -41.6030   -7.6960    4.5880 C.ar   201  EKZ201      0.0000
     12 CAG       -40.7730   -7.5290    3.4970 C.ar   201  EKZ201      0.0000
     13 H         -39.5196   -7.9971    1.0311 H      201  EKZ201      0.0000
     14 H         -38.8277   -6.6483    0.1103 H      201  EKZ201      0.0000
     15 H         -40.4932   -6.5184    0.7392 H      201  EKZ201      0.0000
     16 H         -38.1799   -4.2591    2.8205 H      201  EKZ201      0.0000
     17 H         -39.7254   -4.2480    1.9089 H      201  EKZ201      0.0000
     18 H         -38.1818   -4.5860    1.0843 H      201  EKZ201      0.0000
     19 H         -37.1398   -6.4450    3.5235 H      201  EKZ201      0.0000
     20 H         -36.8491   -6.7584    1.7872 H      201  EKZ201      0.0000
     21 H         -37.6759   -7.9852    2.7932 H      201  EKZ201      0.0000
     22 H         -39.1416   -4.7522    4.5326 H      201  EKZ201      0.0000
     23 H         -41.4548   -4.7598    7.0301 H      201  EKZ201      0.0000
     24 H         -41.9454   -6.7059    7.5529 H      201  EKZ201      0.0000
     25 H         -42.3144   -8.5388    4.6129 H      201  EKZ201      0.0000
     26 H         -40.8403   -8.2600    2.6763 H      201  EKZ201      0.0000
@<TRIPOS>BOND
     1     1     2    1
     2     1    13    1
     3     1    14    1
     4     1    15    1
     5     2     3    1
     6     2     4    1
     7     2     5    1
     8     3    16    1
     9     3    17    1
    10     3    18    1
    11     4    19    1
    12     4    20    1
    13     4    21    1
    14     5     6   ar
    15     5    12   ar
    16     6     7   ar
    17     6    22    1
    18     7     8    1
    19     7     9   ar
    20     8    23    1
    21     9    10    1
    22     9    11   ar
    23    10    24    1
    24    11    12   ar
    25    11    25    1
    26    12    26    1

