DMS_1_A_202
  -ISIS-            3D

 10  9  0  0  0  0  0  0  0  0  1 V2000
  -44.1060  -25.9500    0.9750 S   0  0  0  0  0
  -45.5610  -25.7870    0.6290 O   0  0  0  0  0
  -43.2140  -25.6010   -0.5120 C   0  0  0  0  0
  -43.7870  -27.6890    1.0550 C   0  0  0  0  0
  -42.1385  -25.8322   -0.3696 H   0  0  0  0  0
  -43.3181  -24.5244   -0.7582 H   0  0  0  0  0
  -43.6129  -26.2035   -1.3538 H   0  0  0  0  0
  -42.6978  -27.8679    1.1640 H   0  0  0  0  0
  -44.1544  -28.1927    0.1374 H   0  0  0  0  0
  -44.3093  -28.1173    1.9349 H   0  0  0  0  0
  1  2  2  0  0  0
  1  3  1  0  0  0
  1  4  1  0  0  0
  3  5  1  0  0  0
  3  6  1  0  0  0
  3  7  1  0  0  0
  4  8  1  0  0  0
  4  9  1  0  0  0
  4 10  1  0  0  0
M  END
$$$$
