@<TRIPOS>MOLECULE
ALD_2_A_401
 77 77 0 0 0
SMALL
NO_CHARGES

@<TRIPOS>ATOM
      1 C9          6.1440  -22.2900   47.2750 C.2    401  ALD401      0.0000
      2 O31         6.4950  -22.7780   48.3350 O.2    401  ALD401      0.0000
      3 O8          6.9330  -21.2580   46.6790 O.3    401  ALD401      0.0000
      4 C7          8.1520  -20.7850   47.2870 C.3    401  ALD401      0.0000
      5 C3          7.7960  -19.6350   48.1990 C.ar   401  ALD401      0.0000
      6 C4          7.5850  -19.8500   49.5590 C.ar   401  ALD401      0.0000
      7 C5          7.2700  -18.7850   50.3890 C.ar   401  ALD401      0.0000
      8 C6          7.1450  -17.4990   49.8620 C.ar   401  ALD401      0.0000
      9 C1          7.3500  -17.2810   48.4910 C.ar   401  ALD401      0.0000
     10 C2          7.6830  -18.3510   47.6670 C.ar   401  ALD401      0.0000
     11 N10         5.0430  -22.6230   46.6150 N.am   401  ALD401      0.0000
     12 C11         4.2110  -23.7390   47.0560 C.3    401  ALD401      0.0000
     13 C12         4.5090  -24.9670   46.2470 C.2    401  ALD401      0.0000
     14 O32         4.4490  -24.9340   44.9740 O.2    401  ALD401      0.0000
     15 C30         2.7990  -23.3250   46.7790 C.3    401  ALD401      0.0000
     16 C31         1.9260  -22.8380   47.9230 C.3    401  ALD401      0.0000
     17 C32         2.6810  -21.9600   48.9010 C.3    401  ALD401      0.0000
     18 C33         0.7040  -22.1240   47.3360 C.3    401  ALD401      0.0000
     19 N13         4.7950  -26.0650   46.9180 N.am   401  ALD401      0.0000
     20 C14         4.8190  -27.3490   46.2460 C.3    401  ALD401      0.0000
     21 C15         3.4510  -27.8680   45.8640 C.2    401  ALD401      0.0000
     22 O34         2.6290  -28.0640   46.7380 O.2    401  ALD401      0.0000
     23 C24         5.5040  -28.3750   47.0990 C.3    401  ALD401      0.0000
     24 C25         6.9190  -27.9080   47.4700 C.3    401  ALD401      0.0000
     25 C26         7.8460  -27.8870   46.2800 C.3    401  ALD401      0.0000
     26 C27         7.4910  -28.7920   48.5750 C.3    401  ALD401      0.0000
     27 N16         3.2100  -28.0920   44.5500 N.am   401  ALD401      0.0000
     28 C17         1.9390  -28.6040   44.0520 C.3    401  ALD401      0.0000
     29 C22         2.1960  -30.0820   43.6890 C.3    401  ALD401      0.0000
     30 C18         1.4580  -27.8250   42.8400 C.3    401  ALD401      0.0000
     31 C19         1.1500  -26.3530   43.1490 C.3    401  ALD401      0.0000
     32 C20         0.2940  -26.1040   44.3930 C.3    401  ALD401      0.0000
     33 C21         0.5110  -25.6870   41.9250 C.3    401  ALD401      0.0000
     34 O33         0.9940  -30.6490   43.1730 O.3    401  ALD401      0.0000
     35 H           8.8548  -20.4427   46.4999 H      401  ALD401      0.0000
     36 H           8.6771  -21.5882   47.8425 H      401  ALD401      0.0000
     37 H           7.6693  -20.8644   49.9841 H      401  ALD401      0.0000
     38 H           7.1114  -18.9554   51.4676 H      401  ALD401      0.0000
     39 H           6.8857  -16.6538   50.5222 H      401  ALD401      0.0000
     40 H           7.2506  -16.2655   48.0713 H      401  ALD401      0.0000
     41 H           7.8495  -18.1753   46.5904 H      401  ALD401      0.0000
     42 H           4.8220  -22.1155   45.7492 H      401  ALD401      0.0000
     43 H           4.3391  -23.9618   48.1381 H      401  ALD401      0.0000
     44 H           2.2598  -24.1966   46.3353 H      401  ALD401      0.0000
     45 H           2.7837  -22.5623   45.9668 H      401  ALD401      0.0000
     46 H           1.5646  -23.7327   48.4892 H      401  ALD401      0.0000
     47 H           2.0023  -21.5476   49.6809 H      401  ALD401      0.0000
     48 H           3.1564  -21.0899   48.3954 H      401  ALD401      0.0000
     49 H           3.4806  -22.5063   49.4464 H      401  ALD401      0.0000
     50 H          -0.0108  -21.8200   48.1333 H      401  ALD401      0.0000
     51 H           0.1408  -22.7771   46.6319 H      401  ALD401      0.0000
     52 H           0.9849  -21.2006   46.7817 H      401  ALD401      0.0000
     53 H           4.9297  -26.0192   47.9364 H      401  ALD401      0.0000
     54 H           5.4105  -27.2560   45.3049 H      401  ALD401      0.0000
     55 H           5.5504  -29.3553   46.5706 H      401  ALD401      0.0000
     56 H           4.9131  -28.5421   48.0296 H      401  ALD401      0.0000
     57 H           6.8791  -26.8736   47.8874 H      401  ALD401      0.0000
     58 H           8.8851  -27.6190   46.5758 H      401  ALD401      0.0000
     59 H           7.5434  -27.1410   45.5133 H      401  ALD401      0.0000
     60 H           7.8997  -28.8771   45.7746 H      401  ALD401      0.0000
     61 H           8.5046  -28.4562   48.8899 H      401  ALD401      0.0000
     62 H           7.5820  -29.8531   48.2513 H      401  ALD401      0.0000
     63 H           6.8522  -28.7795   49.4866 H      401  ALD401      0.0000
     64 H           3.9476  -27.8744   43.8656 H      401  ALD401      0.0000
     65 H           1.1511  -28.5830   44.8389 H      401  ALD401      0.0000
     66 H           2.5188  -30.6490   44.5896 H      401  ALD401      0.0000
     67 H           3.0024  -30.1684   42.9288 H      401  ALD401      0.0000
     68 H           0.5297  -28.3008   42.4477 H      401  ALD401      0.0000
     69 H           2.2129  -27.8874   42.0222 H      401  ALD401      0.0000
     70 H           2.1288  -25.8397   43.3241 H      401  ALD401      0.0000
     71 H           0.0517  -25.0242   44.5122 H      401  ALD401      0.0000
     72 H           0.8067  -26.4110   45.3301 H      401  ALD401      0.0000
     73 H          -0.6729  -26.6527   44.3441 H      401  ALD401      0.0000
     74 H           0.3690  -24.5937   42.0786 H      401  ALD401      0.0000
     75 H          -0.4882  -26.1189   41.6929 H      401  ALD401      0.0000
     76 H           1.1417  -25.8048   41.0154 H      401  ALD401      0.0000
     77 H           1.1329  -31.5775   43.0422 H      401  ALD401      0.0000
@<TRIPOS>BOND
     1     1     2    2
     2     1     3    1
     3     1    11    1
     4     3     4    1
     5     4     5    1
     6     4    35    1
     7     4    36    1
     8     5     6   ar
     9     5    10   ar
    10     6     7   ar
    11     6    37    1
    12     7     8   ar
    13     7    38    1
    14     8     9   ar
    15     8    39    1
    16     9    10   ar
    17     9    40    1
    18    10    41    1
    19    11    12    1
    20    11    42    1
    21    12    13    1
    22    12    15    1
    23    12    43    1
    24    13    14    2
    25    13    19    1
    26    15    16    1
    27    15    44    1
    28    15    45    1
    29    16    17    1
    30    16    18    1
    31    16    46    1
    32    17    47    1
    33    17    48    1
    34    17    49    1
    35    18    50    1
    36    18    51    1
    37    18    52    1
    38    19    20    1
    39    19    53    1
    40    20    21    1
    41    20    23    1
    42    20    54    1
    43    21    22    2
    44    21    27    1
    45    23    24    1
    46    23    55    1
    47    23    56    1
    48    24    25    1
    49    24    26    1
    50    24    57    1
    51    25    58    1
    52    25    59    1
    53    25    60    1
    54    26    61    1
    55    26    62    1
    56    26    63    1
    57    27    28    1
    58    27    64    1
    59    28    29    1
    60    28    30    1
    61    28    65    1
    62    29    34    1
    63    29    66    1
    64    29    67    1
    65    30    31    1
    66    30    68    1
    67    30    69    1
    68    31    32    1
    69    31    33    1
    70    31    70    1
    71    32    71    1
    72    32    72    1
    73    32    73    1
    74    33    74    1
    75    33    75    1
    76    33    76    1
    77    34    77    1

