@<TRIPOS>MOLECULE
EDO_1_A_402
 10 9 0 0 0
SMALL
NO_CHARGES

@<TRIPOS>ATOM
      1 C1        -22.1810    4.3640   34.3450 C.3    402  EDO402      0.0000
      2 O1        -21.2180    4.3870   35.4050 O.3    402  EDO402      0.0000
      3 C2        -23.5730    4.0450   34.8910 C.3    402  EDO402      0.0000
      4 O2        -24.2500    5.2670   35.2180 O.3    402  EDO402      0.0000
      5 H         -21.8740    3.5763   33.6255 H      402  EDO402      0.0000
      6 H         -22.1687    5.3254   33.7906 H      402  EDO402      0.0000
      7 H         -21.4306    5.1270   35.9593 H      402  EDO402      0.0000
      8 H         -23.5153    3.3850   35.7815 H      402  EDO402      0.0000
      9 H         -24.1636    3.5074   34.1186 H      402  EDO402      0.0000
     10 H         -25.1128    5.0494   35.5450 H      402  EDO402      0.0000
@<TRIPOS>BOND
     1     1     2    1
     2     1     3    1
     3     1     5    1
     4     1     6    1
     5     2     7    1
     6     3     4    1
     7     3     8    1
     8     3     9    1
     9     4    10    1

