EDO_1_A_404
  -ISIS-            3D

 10  9  0  0  0  0  0  0  0  0  1 V2000
  -21.4880  -30.4320   24.3660 C   0  0  0  0  0
  -21.3180  -31.8560   24.4590 O   0  0  0  0  0
  -21.0190  -29.7880   25.6860 C   0  0  0  0  0
  -21.7300  -28.5590   25.8780 O   0  0  0  0  0
  -22.5623  -30.2102   24.1905 H   0  0  0  0  0
  -20.9133  -30.0316   23.5050 H   0  0  0  0  0
  -21.6806  -32.2498   23.6764 H   0  0  0  0  0
  -19.9225  -29.6161   25.6875 H   0  0  0  0  0
  -21.2509  -30.4557   26.5416 H   0  0  0  0  0
  -21.2755  -27.8735   25.4062 H   0  0  0  0  0
  1  2  1  0  0  0
  1  3  1  0  0  0
  1  5  1  0  0  0
  1  6  1  0  0  0
  2  7  1  0  0  0
  3  4  1  0  0  0
  3  8  1  0  0  0
  3  9  1  0  0  0
  4 10  1  0  0  0
M  END
$$$$
