EDO_1_A_403
  -ISIS-            3D

 10  9  0  0  0  0  0  0  0  0  1 V2000
  -27.1480  -21.1320   -1.9850 C   0  0  0  0  0
  -28.2020  -22.1050   -2.0910 O   0  0  0  0  0
  -27.2150  -20.4780   -0.6020 C   0  0  0  0  0
  -26.1230  -19.5540   -0.4610 O   0  0  0  0  0
  -27.2410  -20.3746   -2.7916 H   0  0  0  0  0
  -26.1741  -21.6461   -2.1214 H   0  0  0  0  0
  -28.9833  -21.6665   -2.4009 H   0  0  0  0  0
  -27.1505  -21.2514    0.1926 H   0  0  0  0  0
  -28.1765  -19.9378   -0.4730 H   0  0  0  0  0
  -26.1379  -19.2106    0.4228 H   0  0  0  0  0
  1  2  1  0  0  0
  1  3  1  0  0  0
  1  5  1  0  0  0
  1  6  1  0  0  0
  2  7  1  0  0  0
  3  4  1  0  0  0
  3  8  1  0  0  0
  3  9  1  0  0  0
  4 10  1  0  0  0
M  END
$$$$
