EDO_2_A_402
  -ISIS-            3D

 10  9  0  0  0  0  0  0  0  0  1 V2000
   12.9250    4.3640   12.2700 C   0  0  0  0  0
   11.9620    4.3870   11.2100 O   0  0  0  0  0
   14.3170    4.0450   11.7240 C   0  0  0  0  0
   14.9940    5.2670   11.3970 O   0  0  0  0  0
   12.6180    3.5764   12.9896 H   0  0  0  0  0
   12.9128    5.3255   12.8243 H   0  0  0  0  0
   12.1751    5.1265   10.6552 H   0  0  0  0  0
   14.2594    3.3849   10.8335 H   0  0  0  0  0
   14.9076    3.5076   12.4965 H   0  0  0  0  0
   15.8571    5.0495   11.0706 H   0  0  0  0  0
  1  2  1  0  0  0
  1  3  1  0  0  0
  1  5  1  0  0  0
  1  6  1  0  0  0
  2  7  1  0  0  0
  3  4  1  0  0  0
  3  8  1  0  0  0
  3  9  1  0  0  0
  4 10  1  0  0  0
M  END
$$$$
