@<TRIPOS>MOLECULE
EDO_1_A_407
 10 9 0 0 0
SMALL
NO_CHARGES

@<TRIPOS>ATOM
      1 C1        -11.4260   -4.2600   23.7440 C.3    407  EDO407      0.0000
      2 O1        -10.8360   -3.4950   24.8110 O.3    407  EDO407      0.0000
      3 C2        -11.8690   -5.5940   24.3580 C.3    407  EDO407      0.0000
      4 O2        -11.8690   -6.6410   23.4090 O.3    407  EDO407      0.0000
      5 H         -10.6669   -4.4270   22.9509 H      407  EDO407      0.0000
      6 H         -12.2833   -3.7143   23.2986 H      407  EDO407      0.0000
      7 H         -10.4880   -2.6936   24.4430 H      407  EDO407      0.0000
      8 H         -12.8711   -5.4985   24.8267 H      407  EDO407      0.0000
      9 H         -11.1685   -5.8830   25.1697 H      407  EDO407      0.0000
     10 H         -12.6418   -6.5560   22.8661 H      407  EDO407      0.0000
@<TRIPOS>BOND
     1     1     2    1
     2     1     3    1
     3     1     5    1
     4     1     6    1
     5     2     7    1
     6     3     4    1
     7     3     8    1
     8     3     9    1
     9     4    10    1

