IPA_1_A_406
  -ISIS-            3D

 12 11  0  0  0  0  0  0  0  0  1 V2000
   -6.5510  -16.3360   26.7460 C   0  0  0  0  0
   -6.0030  -16.1830   28.1660 C   0  0  0  0  0
   -6.8670  -15.1720   28.9470 C   0  0  0  0  0
   -6.0430  -17.4020   28.8790 O   0  0  0  0  0
   -5.9626  -17.0787   26.1639 H   0  0  0  0  0
   -6.5086  -15.3765   26.1856 H   0  0  0  0  0
   -7.6096  -16.6761   26.7381 H   0  0  0  0  0
   -4.9523  -15.8191   28.1234 H   0  0  0  0  0
   -6.4962  -15.0388   29.9872 H   0  0  0  0  0
   -7.9306  -15.4899   29.0133 H   0  0  0  0  0
   -6.8525  -14.1689   28.4671 H   0  0  0  0  0
   -6.9243  -17.7492   28.8487 H   0  0  0  0  0
  1  2  1  0  0  0
  1  5  1  0  0  0
  1  6  1  0  0  0
  1  7  1  0  0  0
  2  3  1  0  0  0
  2  4  1  0  0  0
  2  8  1  0  0  0
  3  9  1  0  0  0
  3 10  1  0  0  0
  3 11  1  0  0  0
  4 12  1  0  0  0
M  END
$$$$
