@<TRIPOS>MOLECULE
IPA_2_A_406
 12 11 0 0 0
SMALL
NO_CHARGES

@<TRIPOS>ATOM
      1 C1         -2.7050  -16.3360   19.8690 C.3    406  IPA406      0.0000
      2 C2         -3.2530  -16.1830   18.4490 C.3    406  IPA406      0.0000
      3 C3         -2.3890  -15.1720   17.6680 C.3    406  IPA406      0.0000
      4 O2         -3.2130  -17.4020   17.7360 O.3    406  IPA406      0.0000
      5 H          -3.3073  -17.0574   20.4635 H      406  IPA406      0.0000
      6 H          -2.7178  -15.3706   20.4207 H      406  IPA406      0.0000
      7 H          -1.6561  -16.7052   19.8696 H      406  IPA406      0.0000
      8 H          -4.3003  -15.8054   18.4930 H      406  IPA406      0.0000
      9 H          -2.7687  -15.0267   16.6328 H      406  IPA406      0.0000
     10 H          -1.3316  -15.5068   17.5877 H      406  IPA406      0.0000
     11 H          -2.3851  -14.1731   18.1565 H      406  IPA406      0.0000
     12 H          -3.8527  -17.9912   18.1132 H      406  IPA406      0.0000
@<TRIPOS>BOND
     1     1     2    1
     2     1     5    1
     3     1     6    1
     4     1     7    1
     5     2     3    1
     6     2     4    1
     7     2     8    1
     8     3     9    1
     9     3    10    1
    10     3    11    1
    11     4    12    1

