@<TRIPOS>MOLECULE
IPA_2_A_408
 12 11 0 0 0
SMALL
NO_CHARGES

@<TRIPOS>ATOM
      1 C1         -8.5030  -16.5540   13.9100 C.3    408  IPA408      0.0000
      2 C2         -6.9750  -16.5870   14.0140 C.3    408  IPA408      0.0000
      3 C3         -6.4810  -15.1930   14.4200 C.3    408  IPA408      0.0000
      4 O2         -6.3840  -16.9630   12.7710 O.3    408  IPA408      0.0000
      5 H          -8.9092  -17.5506   13.6301 H      408  IPA408      0.0000
      6 H          -8.8497  -15.8309   13.1398 H      408  IPA408      0.0000
      7 H          -8.9774  -16.2679   14.8741 H      408  IPA408      0.0000
      8 H          -6.6872  -17.3226   14.8004 H      408  IPA408      0.0000
      9 H          -5.3763  -15.1727   14.5459 H      408  IPA408      0.0000
     10 H          -6.9223  -14.8649   15.3864 H      408  IPA408      0.0000
     11 H          -6.7388  -14.4243   13.6590 H      408  IPA408      0.0000
     12 H          -5.4697  -17.1635   12.9216 H      408  IPA408      0.0000
@<TRIPOS>BOND
     1     1     2    1
     2     1     5    1
     3     1     6    1
     4     1     7    1
     5     2     3    1
     6     2     4    1
     7     2     8    1
     8     3     9    1
     9     3    10    1
    10     3    11    1
    11     4    12    1

