IPA_2_A_408
  -ISIS-            3D

 12 11  0  0  0  0  0  0  0  0  1 V2000
   -8.5030  -16.5540   13.9100 C   0  0  0  0  0
   -6.9750  -16.5870   14.0140 C   0  0  0  0  0
   -6.4810  -15.1930   14.4200 C   0  0  0  0  0
   -6.3840  -16.9630   12.7710 O   0  0  0  0  0
   -8.9092  -17.5506   13.6301 H   0  0  0  0  0
   -8.8497  -15.8309   13.1398 H   0  0  0  0  0
   -8.9774  -16.2679   14.8741 H   0  0  0  0  0
   -6.6872  -17.3226   14.8004 H   0  0  0  0  0
   -5.3763  -15.1727   14.5459 H   0  0  0  0  0
   -6.9223  -14.8649   15.3864 H   0  0  0  0  0
   -6.7388  -14.4243   13.6590 H   0  0  0  0  0
   -5.4697  -17.1635   12.9216 H   0  0  0  0  0
  1  2  1  0  0  0
  1  5  1  0  0  0
  1  6  1  0  0  0
  1  7  1  0  0  0
  2  3  1  0  0  0
  2  4  1  0  0  0
  2  8  1  0  0  0
  3  9  1  0  0  0
  3 10  1  0  0  0
  3 11  1  0  0  0
  4 12  1  0  0  0
M  END
$$$$
