@<TRIPOS>MOLECULE
IPA_1_A_406
 12 11 0 0 0
SMALL
NO_CHARGES

@<TRIPOS>ATOM
      1 C1         -6.5510  -16.3360   26.7460 C.3    406  IPA406      0.0000
      2 C2         -6.0030  -16.1830   28.1660 C.3    406  IPA406      0.0000
      3 C3         -6.8670  -15.1720   28.9470 C.3    406  IPA406      0.0000
      4 O2         -6.0430  -17.4020   28.8790 O.3    406  IPA406      0.0000
      5 H          -5.9626  -17.0787   26.1639 H      406  IPA406      0.0000
      6 H          -6.5086  -15.3765   26.1856 H      406  IPA406      0.0000
      7 H          -7.6096  -16.6761   26.7381 H      406  IPA406      0.0000
      8 H          -4.9523  -15.8191   28.1234 H      406  IPA406      0.0000
      9 H          -6.4962  -15.0388   29.9872 H      406  IPA406      0.0000
     10 H          -7.9306  -15.4899   29.0133 H      406  IPA406      0.0000
     11 H          -6.8525  -14.1689   28.4671 H      406  IPA406      0.0000
     12 H          -6.9243  -17.7492   28.8487 H      406  IPA406      0.0000
@<TRIPOS>BOND
     1     1     2    1
     2     1     5    1
     3     1     6    1
     4     1     7    1
     5     2     3    1
     6     2     4    1
     7     2     8    1
     8     3     9    1
     9     3    10    1
    10     3    11    1
    11     4    12    1

