@<TRIPOS>MOLECULE
IPA_2_A_405
 12 11 0 0 0
SMALL
NO_CHARGES

@<TRIPOS>ATOM
      1 C1         -9.0950  -31.7110   41.5140 C.3    405  IPA405      0.0000
      2 C2         -7.8270  -31.6080   42.3680 C.3    405  IPA405      0.0000
      3 C3         -7.4540  -30.1560   42.6970 C.3    405  IPA405      0.0000
      4 O2         -8.0140  -32.2770   43.6050 O.3    405  IPA405      0.0000
      5 H          -9.3489  -32.7684   41.2814 H      405  IPA405      0.0000
      6 H          -8.9765  -31.1830   40.5427 H      405  IPA405      0.0000
      7 H          -9.9743  -31.2652   42.0282 H      405  IPA405      0.0000
      8 H          -6.9785  -32.0744   41.8159 H      405  IPA405      0.0000
      9 H          -6.5259  -30.1003   43.3074 H      405  IPA405      0.0000
     10 H          -8.2581  -29.6435   43.2692 H      405  IPA405      0.0000
     11 H          -7.2746  -29.5620   41.7743 H      405  IPA405      0.0000
     12 H          -8.0409  -33.2104   43.4412 H      405  IPA405      0.0000
@<TRIPOS>BOND
     1     1     2    1
     2     1     5    1
     3     1     6    1
     4     1     7    1
     5     2     3    1
     6     2     4    1
     7     2     8    1
     8     3     9    1
     9     3    10    1
    10     3    11    1
    11     4    12    1

