@<TRIPOS>MOLECULE
IPA_1_A_408
 12 11 0 0 0
SMALL
NO_CHARGES

@<TRIPOS>ATOM
      1 C1         -0.7530  -16.5540   32.7050 C.3    408  IPA408      0.0000
      2 C2         -2.2810  -16.5870   32.6010 C.3    408  IPA408      0.0000
      3 C3         -2.7750  -15.1930   32.1950 C.3    408  IPA408      0.0000
      4 O2         -2.8720  -16.9630   33.8440 O.3    408  IPA408      0.0000
      5 H          -0.3406  -17.5511   32.9739 H      408  IPA408      0.0000
      6 H          -0.4069  -15.8363   33.4806 H      408  IPA408      0.0000
      7 H          -0.2804  -16.2576   31.7431 H      408  IPA408      0.0000
      8 H          -2.5798  -17.3154   31.8122 H      408  IPA408      0.0000
      9 H          -3.8822  -15.1692   32.0930 H      408  IPA408      0.0000
     10 H          -2.3516  -14.8734   31.2177 H      408  IPA408      0.0000
     11 H          -2.4982  -14.4212   32.9462 H      408  IPA408      0.0000
     12 H          -2.6876  -17.8803   33.9967 H      408  IPA408      0.0000
@<TRIPOS>BOND
     1     1     2    1
     2     1     5    1
     3     1     6    1
     4     1     7    1
     5     2     3    1
     6     2     4    1
     7     2     8    1
     8     3     9    1
     9     3    10    1
    10     3    11    1
    11     4    12    1

