@<TRIPOS>MOLECULE
0LO_1_A_201
 23 24 0 0 0
SMALL
NO_CHARGES

@<TRIPOS>ATOM
      1 CAF         9.6340    5.7170   17.4350 C.ar   201  0LO201      0.0000
      2 CAD         8.9590    6.8310   17.8910 C.ar   201  0LO201      0.0000
      3 CAC         8.0020    6.7050   18.8720 C.ar   201  0LO201      0.0000
      4 CAE         7.7220    5.4610   19.4030 C.ar   201  0LO201      0.0000
      5 CAG         8.3890    4.3470   18.9460 C.ar   201  0LO201      0.0000
      6 CAN         9.3580    4.4660   17.9580 C.ar   201  0LO201      0.0000
      7 CAO        10.0960    3.2230   17.4410 C.ar   201  0LO201      0.0000
      8 CAJ        10.5660    2.2290   18.2890 C.ar   201  0LO201      0.0000
      9 CAI        10.2940    3.0600   16.0830 C.ar   201  0LO201      0.0000
     10 NAK        10.9090    2.0170   15.5860 N.ar   201  0LO201      0.0000
     11 CAH        11.3700    1.0740   16.3580 C.ar   201  0LO201      0.0000
     12 CAM        11.2220    1.1390   17.7320 C.ar   201  0LO201      0.0000
     13 CAL        11.7510    0.0100   18.6200 C.2    201  0LO201      0.0000
     14 OAB        11.8940    0.1780   19.8500 O.co2  201  0LO201     -0.5000
     15 OAA        12.0240   -1.1050   18.1290 O.co2  201  0LO201     -0.5000
     16 H          10.4009    5.8374   16.6513 H      201  0LO201      0.0000
     17 H           9.1868    7.8246   17.4684 H      201  0LO201      0.0000
     18 H           7.4614    7.5955   19.2356 H      201  0LO201      0.0000
     19 H           6.9574    5.3602   20.1923 H      201  0LO201      0.0000
     20 H           8.1453    3.3583   19.3700 H      201  0LO201      0.0000
     21 H          10.4249    2.3107   19.3786 H      201  0LO201      0.0000
     22 H           9.9238    3.8164   15.3716 H      201  0LO201      0.0000
     23 H          11.8794    0.2200   15.8819 H      201  0LO201      0.0000
@<TRIPOS>BOND
     1     1     2   ar
     2     1     6   ar
     3     1    16    1
     4     2     3   ar
     5     2    17    1
     6     3     4   ar
     7     3    18    1
     8     4     5   ar
     9     4    19    1
    10     5     6   ar
    11     5    20    1
    12     6     7    1
    13     7     8   ar
    14     7     9   ar
    15     8    12   ar
    16     8    21    1
    17     9    10   ar
    18     9    22    1
    19    10    11   ar
    20    11    12   ar
    21    11    23    1
    22    12    13    1
    23    13    14   ar
    24    13    15   ar

