@<TRIPOS>MOLECULE
NNA_2_A_401
 112 115 0 0 0
SMALL
NO_CHARGES

@<TRIPOS>ATOM
      1 C1          7.6610    3.5540   45.2140 C.2    401  NNA401      0.0000
      2 O2          8.0680    3.2230   46.3420 O.2    401  NNA401      0.0000
      3 N3          8.3810    4.3030   44.3510 N.am   401  NNA401      0.0000
      4 C4          9.7200    4.8740   44.5990 C.3    401  NNA401      0.0000
      5 C5         10.7430    3.7510   44.8410 C.3    401  NNA401      0.0000
      6 C6         10.1720    5.7010   43.3840 C.3    401  NNA401      0.0000
      7 C7         10.9930    2.9050   43.6020 C.3    401  NNA401      0.0000
      8 C8         10.4270    4.8440   42.1520 C.3    401  NNA401      0.0000
      9 C9         11.4510    3.7680   42.4440 C.3    401  NNA401      0.0000
     10 C10         9.6600    5.7810   45.8520 C.3    401  NNA401      0.0000
     11 S11         8.5730    7.1890   45.8170 S.o    401  NNA401      0.0000
     12 O12         7.3230    6.8020   45.2340 O.2    401  NNA401      0.0000
     13 O13         9.2840    8.3110   45.2800 O.2    401  NNA401      0.0000
     14 C14         8.2240    7.6060   47.5320 C.3    401  NNA401      0.0000
     15 C15         9.4910    8.1700   48.1670 C.3    401  NNA401      0.0000
     16 C16         7.8080    6.3360   48.2650 C.3    401  NNA401      0.0000
     17 C17         7.1080    8.6400   47.5880 C.3    401  NNA401      0.0000
     18 N18         6.4460    3.1710   44.7640 N.am   401  NNA401      0.0000
     19 C19         5.6470    2.2090   45.5050 C.3    401  NNA401      0.0000
     20 C20         4.2280    2.7140   45.8180 C.3    401  NNA401      0.0000
     21 C21         4.3000    3.9180   46.7610 C.3    401  NNA401      0.0000
     22 C22         3.4940    3.1410   44.5440 C.3    401  NNA401      0.0000
     23 C23         3.4210    1.6090   46.5060 C.3    401  NNA401      0.0000
     24 C24         5.6770    0.8710   44.7670 C.2    401  NNA401      0.0000
     25 O25         5.1660    0.7300   43.6600 O.2    401  NNA401      0.0000
     26 N26         6.3150   -0.1460   45.3670 N.am   401  NNA401      0.0000
     27 C27         6.9700   -0.0890   46.6810 C.3    401  NNA401      0.0000
     28 C28         6.3840   -1.4570   44.7220 C.3    401  NNA401      0.0000
     29 C29         7.4260   -2.2140   45.5250 C.3    401  NNA401      0.0000
     30 C30         7.7140   -1.4060   46.7760 C.3    401  NNA401      0.0000
     31 C31         8.8130   -1.6710   45.7840 C.3    401  NNA401      0.0000
     32 C32         9.8950   -2.6530   46.1780 C.3    401  NNA401      0.0000
     33 C33         9.3300   -0.5680   44.8860 C.3    401  NNA401      0.0000
     34 C34         5.0380   -2.1710   44.8030 C.2    401  NNA401      0.0000
     35 O35         4.5190   -2.4150   45.8910 O.2    401  NNA401      0.0000
     36 N36         4.4710   -2.4770   43.6360 N.am   401  NNA401      0.0000
     37 C37         3.0930   -2.9830   43.5470 C.3    401  NNA401      0.0000
     38 C38         2.2070   -1.9620   42.8290 C.3    401  NNA401      0.0000
     39 C39         2.1520   -0.6190   43.5200 C.3    401  NNA401      0.0000
     40 C40         1.4700    0.4370   42.6860 C.3    401  NNA401      0.0000
     41 C41         0.0590    0.0880   42.2780 C.3    401  NNA401      0.0000
     42 O42         4.0420   -5.2160   43.3740 O.3    401  NNA401      0.0000
     43 C43         3.0350   -4.3560   42.8510 C.3    401  NNA401      0.0000
     44 O44         0.8710   -4.9710   42.0810 O.2    401  NNA401      0.0000
     45 N45         1.4010   -5.4980   44.2190 N.am   401  NNA401      0.0000
     46 C46         0.1350   -6.1190   44.5020 C.3    401  NNA401      0.0000
     47 C47        -0.7920   -5.4050   45.4210 C.3    401  NNA401      0.0000
     48 C48        -0.0920   -6.6340   45.8790 C.3    401  NNA401      0.0000
     49 C49         1.6710   -4.9710   43.0210 C.2    401  NNA401      0.0000
     50 H           7.9439    4.5207   43.4466 H      401  NNA401      0.0000
     51 H          10.4222    3.0939   45.6798 H      401  NNA401      0.0000
     52 H          11.7114    4.1995   45.1644 H      401  NNA401      0.0000
     53 H          11.1061    6.2548   43.6368 H      401  NNA401      0.0000
     54 H           9.4104    6.4742   43.1332 H      401  NNA401      0.0000
     55 H          10.0657    2.3530   43.3239 H      401  NNA401      0.0000
     56 H          11.7644    2.1313   43.8240 H      401  NNA401      0.0000
     57 H          10.7903    5.4892   41.3183 H      401  NNA401      0.0000
     58 H           9.4792    4.3812   41.7943 H      401  NNA401      0.0000
     59 H          11.6057    3.1360   41.5388 H      401  NNA401      0.0000
     60 H          12.4370    4.2316   42.6792 H      401  NNA401      0.0000
     61 H          10.6692    6.1811   46.0842 H      401  NNA401      0.0000
     62 H           9.3847    5.1634   46.7220 H      401  NNA401      0.0000
     63 H           9.3287    8.4190   49.2385 H      401  NNA401      0.0000
     64 H           9.8346    9.1076   47.6785 H      401  NNA401      0.0000
     65 H          10.3420    7.4558   48.1386 H      401  NNA401      0.0000
     66 H           7.4199    6.5780   49.2786 H      401  NNA401      0.0000
     67 H           8.6383    5.6225   48.4413 H      401  NNA401      0.0000
     68 H           6.9905    5.7867   47.7493 H      401  NNA401      0.0000
     69 H           6.8820    8.9429   48.6336 H      401  NNA401      0.0000
     70 H           6.1561    8.2600   47.1571 H      401  NNA401      0.0000
     71 H           7.3668    9.5708   47.0375 H      401  NNA401      0.0000
     72 H           6.0964    3.5109   43.8594 H      401  NNA401      0.0000
     73 H           6.0996    2.0552   46.5074 H      401  NNA401      0.0000
     74 H           3.2888    4.3040   47.0202 H      401  NNA401      0.0000
     75 H           4.8621    4.7672   46.3124 H      401  NNA401      0.0000
     76 H           4.8047    3.6676   47.7209 H      401  NNA401      0.0000
     77 H           2.4413    3.4321   44.7582 H      401  NNA401      0.0000
     78 H           3.4495    2.3394   43.7799 H      401  NNA401      0.0000
     79 H           3.9648    4.0235   44.0584 H      401  NNA401      0.0000
     80 H           2.3949    1.9487   46.7709 H      401  NNA401      0.0000
     81 H           3.9007    1.2731   47.4523 H      401  NNA401      0.0000
     82 H           3.3013    0.7074   45.8693 H      401  NNA401      0.0000
     83 H           6.2197   -0.0360   47.5027 H      401  NNA401      0.0000
     84 H           7.6908    0.7481   46.7990 H      401  NNA401      0.0000
     85 H           6.7346   -1.3866   43.6668 H      401  NNA401      0.0000
     86 H           7.3061   -3.2909   45.6225 H      401  NNA401      0.0000
     87 H           7.7726   -1.9139   47.7350 H      401  NNA401      0.0000
     88 H          10.7092   -2.1396   46.7358 H      401  NNA401      0.0000
     89 H          10.3416   -3.1315   45.2785 H      401  NNA401      0.0000
     90 H           9.5020   -3.4645   46.8293 H      401  NNA401      0.0000
     91 H          10.1231    0.0144   45.4053 H      401  NNA401      0.0000
     92 H           8.5584    0.1568   44.5585 H      401  NNA401      0.0000
     93 H           9.7798   -0.9975   43.9636 H      401  NNA401      0.0000
     94 H           4.9920   -2.3224   42.7621 H      401  NNA401      0.0000
     95 H           2.6729   -3.1143   44.5719 H      401  NNA401      0.0000
     96 H           1.1749   -2.3708   42.7444 H      401  NNA401      0.0000
     97 H           2.5839   -1.8276   41.7883 H      401  NNA401      0.0000
     98 H           3.1777   -0.2785   43.7591 H      401  NNA401      0.0000
     99 H           1.6241   -0.7261   44.4961 H      401  NNA401      0.0000
    100 H           2.0765    0.6466   41.7742 H      401  NNA401      0.0000
    101 H           1.4403    1.3896   43.2636 H      401  NNA401      0.0000
    102 H          -0.4354    0.9437   41.7652 H      401  NNA401      0.0000
    103 H          -0.5737   -0.1727   43.1559 H      401  NNA401      0.0000
    104 H           0.0207   -0.7692   41.5703 H      401  NNA401      0.0000
    105 H           4.0404   -6.0247   42.8785 H      401  NNA401      0.0000
    106 H           3.2312   -4.2054   41.7645 H      401  NNA401      0.0000
    107 H           2.1536   -5.4555   44.9228 H      401  NNA401      0.0000
    108 H          -0.3400   -6.7009   43.7119 H      401  NNA401      0.0000
    109 H          -1.8513   -5.5126   45.2041 H      401  NNA401      0.0000
    110 H          -0.4283   -4.4681   45.8342 H      401  NNA401      0.0000
    111 H           0.7125   -6.4827   46.5934 H      401  NNA401      0.0000
    112 H          -0.7041   -7.5286   45.9571 H      401  NNA401      0.0000
@<TRIPOS>BOND
     1     1     2    2
     2     1     3    1
     3     1    18    1
     4     3     4    1
     5     3    50    1
     6     4     5    1
     7     4     6    1
     8     4    10    1
     9     5     7    1
    10     5    51    1
    11     5    52    1
    12     6     8    1
    13     6    53    1
    14     6    54    1
    15     7     9    1
    16     7    55    1
    17     7    56    1
    18     8     9    1
    19     8    57    1
    20     8    58    1
    21     9    59    1
    22     9    60    1
    23    10    11    1
    24    10    61    1
    25    10    62    1
    26    11    12    2
    27    11    13    2
    28    11    14    1
    29    14    15    1
    30    14    16    1
    31    14    17    1
    32    15    63    1
    33    15    64    1
    34    15    65    1
    35    16    66    1
    36    16    67    1
    37    16    68    1
    38    17    69    1
    39    17    70    1
    40    17    71    1
    41    18    19    1
    42    18    72    1
    43    19    20    1
    44    19    24    1
    45    19    73    1
    46    20    21    1
    47    20    22    1
    48    20    23    1
    49    21    74    1
    50    21    75    1
    51    21    76    1
    52    22    77    1
    53    22    78    1
    54    22    79    1
    55    23    80    1
    56    23    81    1
    57    23    82    1
    58    24    25    2
    59    24    26    1
    60    26    27    1
    61    26    28    1
    62    27    30    1
    63    27    83    1
    64    27    84    1
    65    28    29    1
    66    28    34    1
    67    28    85    1
    68    29    30    1
    69    29    31    1
    70    29    86    1
    71    30    31    1
    72    30    87    1
    73    31    32    1
    74    31    33    1
    75    32    88    1
    76    32    89    1
    77    32    90    1
    78    33    91    1
    79    33    92    1
    80    33    93    1
    81    34    35    2
    82    34    36    1
    83    36    37    1
    84    36    94    1
    85    37    38    1
    86    37    43    1
    87    37    95    1
    88    38    39    1
    89    38    96    1
    90    38    97    1
    91    39    40    1
    92    39    98    1
    93    39    99    1
    94    40    41    1
    95    40   100    1
    96    40   101    1
    97    41   102    1
    98    41   103    1
    99    41   104    1
   100    42    43    1
   101    42   105    1
   102    43    49    1
   103    43   106    1
   104    44    49    2
   105    45    46    1
   106    45    49    1
   107    45   107    1
   108    46    47    1
   109    46    48    1
   110    46   108    1
   111    47    48    1
   112    47   109    1
   113    47   110    1
   114    48   111    1
   115    48   112    1

