@<TRIPOS>MOLECULE
NNA_1_A_401
 112 115 0 0 0
SMALL
NO_CHARGES

@<TRIPOS>ATOM
      1 C1        -16.9080    3.5540   -0.1840 C.2    401  NNA401      0.0000
      2 O2        -17.3150    3.2230   -1.3120 O.2    401  NNA401      0.0000
      3 N3        -17.6280    4.3030    0.6790 N.am   401  NNA401      0.0000
      4 C4        -18.9670    4.8740    0.4310 C.3    401  NNA401      0.0000
      5 C5        -19.9900    3.7510    0.1890 C.3    401  NNA401      0.0000
      6 C6        -19.4190    5.7010    1.6460 C.3    401  NNA401      0.0000
      7 C7        -20.2400    2.9050    1.4280 C.3    401  NNA401      0.0000
      8 C8        -19.6740    4.8440    2.8780 C.3    401  NNA401      0.0000
      9 C9        -20.6980    3.7680    2.5860 C.3    401  NNA401      0.0000
     10 C10       -18.9070    5.7810   -0.8220 C.3    401  NNA401      0.0000
     11 S11       -17.8200    7.1890   -0.7870 S.o    401  NNA401      0.0000
     12 O12       -16.5700    6.8020   -0.2040 O.2    401  NNA401      0.0000
     13 O13       -18.5310    8.3110   -0.2500 O.2    401  NNA401      0.0000
     14 C14       -17.4710    7.6060   -2.5020 C.3    401  NNA401      0.0000
     15 C15       -18.7380    8.1700   -3.1370 C.3    401  NNA401      0.0000
     16 C16       -17.0550    6.3360   -3.2350 C.3    401  NNA401      0.0000
     17 C17       -16.3550    8.6400   -2.5580 C.3    401  NNA401      0.0000
     18 N18       -15.6930    3.1710    0.2660 N.am   401  NNA401      0.0000
     19 C19       -14.8940    2.2090   -0.4750 C.3    401  NNA401      0.0000
     20 C20       -13.4750    2.7140   -0.7880 C.3    401  NNA401      0.0000
     21 C21       -13.5470    3.9180   -1.7310 C.3    401  NNA401      0.0000
     22 C22       -12.7410    3.1410    0.4860 C.3    401  NNA401      0.0000
     23 C23       -12.6680    1.6090   -1.4760 C.3    401  NNA401      0.0000
     24 C24       -14.9240    0.8710    0.2630 C.2    401  NNA401      0.0000
     25 O25       -14.4130    0.7300    1.3700 O.2    401  NNA401      0.0000
     26 N26       -15.5620   -0.1460   -0.3370 N.am   401  NNA401      0.0000
     27 C27       -16.2170   -0.0890   -1.6510 C.3    401  NNA401      0.0000
     28 C28       -15.6310   -1.4570    0.3080 C.3    401  NNA401      0.0000
     29 C29       -16.6730   -2.2140   -0.4950 C.3    401  NNA401      0.0000
     30 C30       -16.9610   -1.4060   -1.7460 C.3    401  NNA401      0.0000
     31 C31       -18.0600   -1.6710   -0.7540 C.3    401  NNA401      0.0000
     32 C32       -19.1420   -2.6530   -1.1480 C.3    401  NNA401      0.0000
     33 C33       -18.5770   -0.5680    0.1440 C.3    401  NNA401      0.0000
     34 C34       -14.2850   -2.1710    0.2270 C.2    401  NNA401      0.0000
     35 O35       -13.7660   -2.4150   -0.8610 O.2    401  NNA401      0.0000
     36 N36       -13.7180   -2.4770    1.3940 N.am   401  NNA401      0.0000
     37 C37       -12.3400   -2.9830    1.4830 C.3    401  NNA401      0.0000
     38 C38       -11.4540   -1.9620    2.2010 C.3    401  NNA401      0.0000
     39 C39       -11.3990   -0.6190    1.5100 C.3    401  NNA401      0.0000
     40 C40       -10.7170    0.4370    2.3440 C.3    401  NNA401      0.0000
     41 C41        -9.3060    0.0880    2.7520 C.3    401  NNA401      0.0000
     42 O42       -13.2890   -5.2160    1.6560 O.3    401  NNA401      0.0000
     43 C43       -12.2820   -4.3560    2.1790 C.3    401  NNA401      0.0000
     44 O44       -10.1180   -4.9710    2.9490 O.2    401  NNA401      0.0000
     45 N45       -10.6480   -5.4980    0.8110 N.am   401  NNA401      0.0000
     46 C46        -9.3820   -6.1190    0.5280 C.3    401  NNA401      0.0000
     47 C47        -8.4550   -5.4050   -0.3910 C.3    401  NNA401      0.0000
     48 C48        -9.1550   -6.6340   -0.8490 C.3    401  NNA401      0.0000
     49 C49       -10.9180   -4.9710    2.0090 C.2    401  NNA401      0.0000
     50 H         -17.1909    4.5207    1.5834 H      401  NNA401      0.0000
     51 H         -19.6692    3.0939   -0.6499 H      401  NNA401      0.0000
     52 H         -20.9584    4.1995   -0.1344 H      401  NNA401      0.0000
     53 H         -20.3531    6.2548    1.3932 H      401  NNA401      0.0000
     54 H         -18.6574    6.4742    1.8968 H      401  NNA401      0.0000
     55 H         -19.3127    2.3530    1.7061 H      401  NNA401      0.0000
     56 H         -21.0114    2.1313    1.2060 H      401  NNA401      0.0000
     57 H         -20.0373    5.4892    3.7117 H      401  NNA401      0.0000
     58 H         -18.7262    4.3813    3.2357 H      401  NNA401      0.0000
     59 H         -20.8527    3.1360    3.4912 H      401  NNA401      0.0000
     60 H         -21.6840    4.2316    2.3508 H      401  NNA401      0.0000
     61 H         -19.9162    6.1811   -1.0541 H      401  NNA401      0.0000
     62 H         -18.6318    5.1634   -1.6921 H      401  NNA401      0.0000
     63 H         -18.5758    8.4186   -4.2086 H      401  NNA401      0.0000
     64 H         -19.0813    9.1079   -2.6488 H      401  NNA401      0.0000
     65 H         -19.5891    7.4560   -3.1082 H      401  NNA401      0.0000
     66 H         -16.6670    6.5780   -4.2486 H      401  NNA401      0.0000
     67 H         -17.8853    5.6225   -3.4113 H      401  NNA401      0.0000
     68 H         -16.2375    5.7867   -2.7194 H      401  NNA401      0.0000
     69 H         -16.1293    8.9432   -3.6036 H      401  NNA401      0.0000
     70 H         -15.4030    8.2598   -2.1275 H      401  NNA401      0.0000
     71 H         -16.6136    9.5707   -2.0071 H      401  NNA401      0.0000
     72 H         -15.3434    3.5109    1.1706 H      401  NNA401      0.0000
     73 H         -15.3465    2.0552   -1.4774 H      401  NNA401      0.0000
     74 H         -12.5358    4.3040   -1.9902 H      401  NNA401      0.0000
     75 H         -14.1091    4.7672   -1.2824 H      401  NNA401      0.0000
     76 H         -14.0517    3.6676   -2.6908 H      401  NNA401      0.0000
     77 H         -11.6880    3.4312    0.2719 H      401  NNA401      0.0000
     78 H         -12.6972    2.3397    1.2505 H      401  NNA401      0.0000
     79 H         -13.2113    4.0241    0.9711 H      401  NNA401      0.0000
     80 H         -11.6419    1.9488   -1.7411 H      401  NNA401      0.0000
     81 H         -13.1479    1.2730   -2.4221 H      401  NNA401      0.0000
     82 H         -12.5481    0.7075   -0.8392 H      401  NNA401      0.0000
     83 H         -15.4667   -0.0360   -2.4727 H      401  NNA401      0.0000
     84 H         -16.9378    0.7481   -1.7690 H      401  NNA401      0.0000
     85 H         -15.9816   -1.3866    1.3632 H      401  NNA401      0.0000
     86 H         -16.5531   -3.2909   -0.5924 H      401  NNA401      0.0000
     87 H         -17.0196   -1.9139   -2.7050 H      401  NNA401      0.0000
     88 H         -19.9561   -2.1396   -1.7059 H      401  NNA401      0.0000
     89 H         -19.5887   -3.1314   -0.2485 H      401  NNA401      0.0000
     90 H         -18.7490   -3.4645   -1.7992 H      401  NNA401      0.0000
     91 H         -19.3699    0.0146   -0.3754 H      401  NNA401      0.0000
     92 H         -17.8053    0.1567    0.4718 H      401  NNA401      0.0000
     93 H         -19.0271   -0.9975    1.0662 H      401  NNA401      0.0000
     94 H         -14.2390   -2.3224    2.2679 H      401  NNA401      0.0000
     95 H         -11.9199   -3.1143    0.4581 H      401  NNA401      0.0000
     96 H         -10.4219   -2.3708    2.2856 H      401  NNA401      0.0000
     97 H         -11.8309   -1.8276    3.2417 H      401  NNA401      0.0000
     98 H         -12.4247   -0.2785    1.2709 H      401  NNA401      0.0000
     99 H         -10.8711   -0.7261    0.5339 H      401  NNA401      0.0000
    100 H         -11.3235    0.6467    3.2558 H      401  NNA401      0.0000
    101 H         -10.6873    1.3895    1.7663 H      401  NNA401      0.0000
    102 H          -8.8112    0.9441    3.2639 H      401  NNA401      0.0000
    103 H          -8.6735   -0.1737    1.8742 H      401  NNA401      0.0000
    104 H          -9.2678   -0.7686    3.4604 H      401  NNA401      0.0000
    105 H         -13.2865   -6.0252    2.1507 H      401  NNA401      0.0000
    106 H         -12.4782   -4.2054    3.2655 H      401  NNA401      0.0000
    107 H         -11.4006   -5.4555    0.1072 H      401  NNA401      0.0000
    108 H          -8.9070   -6.7009    1.3181 H      401  NNA401      0.0000
    109 H          -7.3957   -5.5126   -0.1740 H      401  NNA401      0.0000
    110 H          -8.8187   -4.4681   -0.8042 H      401  NNA401      0.0000
    111 H          -9.9594   -6.4827   -1.5634 H      401  NNA401      0.0000
    112 H          -8.5429   -7.5286   -0.9271 H      401  NNA401      0.0000
@<TRIPOS>BOND
     1     1     2    2
     2     1     3    1
     3     1    18    1
     4     3     4    1
     5     3    50    1
     6     4     5    1
     7     4     6    1
     8     4    10    1
     9     5     7    1
    10     5    51    1
    11     5    52    1
    12     6     8    1
    13     6    53    1
    14     6    54    1
    15     7     9    1
    16     7    55    1
    17     7    56    1
    18     8     9    1
    19     8    57    1
    20     8    58    1
    21     9    59    1
    22     9    60    1
    23    10    11    1
    24    10    61    1
    25    10    62    1
    26    11    12    2
    27    11    13    2
    28    11    14    1
    29    14    15    1
    30    14    16    1
    31    14    17    1
    32    15    63    1
    33    15    64    1
    34    15    65    1
    35    16    66    1
    36    16    67    1
    37    16    68    1
    38    17    69    1
    39    17    70    1
    40    17    71    1
    41    18    19    1
    42    18    72    1
    43    19    20    1
    44    19    24    1
    45    19    73    1
    46    20    21    1
    47    20    22    1
    48    20    23    1
    49    21    74    1
    50    21    75    1
    51    21    76    1
    52    22    77    1
    53    22    78    1
    54    22    79    1
    55    23    80    1
    56    23    81    1
    57    23    82    1
    58    24    25    2
    59    24    26    1
    60    26    27    1
    61    26    28    1
    62    27    30    1
    63    27    83    1
    64    27    84    1
    65    28    29    1
    66    28    34    1
    67    28    85    1
    68    29    30    1
    69    29    31    1
    70    29    86    1
    71    30    31    1
    72    30    87    1
    73    31    32    1
    74    31    33    1
    75    32    88    1
    76    32    89    1
    77    32    90    1
    78    33    91    1
    79    33    92    1
    80    33    93    1
    81    34    35    2
    82    34    36    1
    83    36    37    1
    84    36    94    1
    85    37    38    1
    86    37    43    1
    87    37    95    1
    88    38    39    1
    89    38    96    1
    90    38    97    1
    91    39    40    1
    92    39    98    1
    93    39    99    1
    94    40    41    1
    95    40   100    1
    96    40   101    1
    97    41   102    1
    98    41   103    1
    99    41   104    1
   100    42    43    1
   101    42   105    1
   102    43    49    1
   103    43   106    1
   104    44    49    2
   105    45    46    1
   106    45    49    1
   107    45   107    1
   108    46    47    1
   109    46    48    1
   110    46   108    1
   111    47    48    1
   112    47   109    1
   113    47   110    1
   114    48   111    1
   115    48   112    1

