DMS_1_A_403
  -ISIS-            3D

 10  9  0  0  0  0  0  0  0  0  1 V2000
    2.3270  -18.9330    8.0850 S   0  0  0  0  0
    3.5710  -18.6770    8.9270 O   0  0  0  0  0
    0.9700  -18.2460    9.0140 C   0  0  0  0  0
    1.9260  -20.6350    8.3880 C   0  0  0  0  0
    0.0069  -18.5461    8.5526 H   0  0  0  0  0
    1.0427  -17.1392    9.0008 H   0  0  0  0  0
    1.0024  -18.5962   10.0661 H   0  0  0  0  0
    0.9360  -20.8737    7.9484 H   0  0  0  0  0
    1.9069  -20.8431    9.4775 H   0  0  0  0  0
    2.6919  -21.2811    7.9121 H   0  0  0  0  0
  1  2  2  0  0  0
  1  3  1  0  0  0
  1  4  1  0  0  0
  3  5  1  0  0  0
  3  6  1  0  0  0
  3  7  1  0  0  0
  4  8  1  0  0  0
  4  9  1  0  0  0
  4 10  1  0  0  0
M  END
$$$$
