@<TRIPOS>MOLECULE
DMS_2_A_403
 10 9 0 0 0
SMALL
NO_CHARGES

@<TRIPOS>ATOM
      1 S          -2.3270  -18.9330   -8.0850 S.o    403  DMS403      0.0000
      2 O          -3.5710  -18.6770   -8.9270 O.2    403  DMS403      0.0000
      3 C1         -0.9700  -18.2460   -9.0140 C.3    403  DMS403      0.0000
      4 C2         -1.9260  -20.6350   -8.3880 C.3    403  DMS403      0.0000
      5 H          -0.0069  -18.5461   -8.5526 H      403  DMS403      0.0000
      6 H          -1.0427  -17.1392   -9.0008 H      403  DMS403      0.0000
      7 H          -1.0024  -18.5962  -10.0661 H      403  DMS403      0.0000
      8 H          -0.9360  -20.8737   -7.9484 H      403  DMS403      0.0000
      9 H          -1.9069  -20.8431   -9.4775 H      403  DMS403      0.0000
     10 H          -2.6919  -21.2811   -7.9121 H      403  DMS403      0.0000
@<TRIPOS>BOND
     1     1     2    2
     2     1     3    1
     3     1     4    1
     4     3     5    1
     5     3     6    1
     6     3     7    1
     7     4     8    1
     8     4     9    1
     9     4    10    1

