DMS_1_A_402
  -ISIS-            3D

 10  9  0  0  0  0  0  0  0  0  1 V2000
    6.1480   -1.0130   -6.2980 S   0  0  0  0  0
    7.0950   -0.7170   -7.3840 O   0  0  0  0  0
    7.0220   -0.9070   -4.7520 C   0  0  0  0  0
    5.8840   -2.7640   -6.2970 C   0  0  0  0  0
    6.3646   -1.2419   -3.9238 H   0  0  0  0  0
    7.3183    0.1464   -4.5707 H   0  0  0  0  0
    7.9334   -1.5387   -4.7801 H   0  0  0  0  0
    5.2615   -3.0513   -5.4251 H   0  0  0  0  0
    6.8535   -3.3013   -6.2518 H   0  0  0  0  0
    5.3533   -3.0556   -7.2263 H   0  0  0  0  0
  1  2  2  0  0  0
  1  3  1  0  0  0
  1  4  1  0  0  0
  3  5  1  0  0  0
  3  6  1  0  0  0
  3  7  1  0  0  0
  4  8  1  0  0  0
  4  9  1  0  0  0
  4 10  1  0  0  0
M  END
$$$$
