@<TRIPOS>MOLECULE
DMS_2_A_401
 10 9 0 0 0
SMALL
NO_CHARGES

@<TRIPOS>ATOM
      1 S          -6.9840  -27.9650  -21.4880 S.o    401  DMS401      0.0000
      2 O          -7.7060  -27.0540  -22.3800 O.2    401  DMS401      0.0000
      3 C1         -5.7220  -28.7290  -22.4810 C.3    401  DMS401      0.0000
      4 C2         -5.9500  -26.9420  -20.4870 C.3    401  DMS401      0.0000
      5 H          -5.0456  -29.3252  -21.8349 H      401  DMS401      0.0000
      6 H          -5.1339  -27.9577  -23.0192 H      401  DMS401      0.0000
      7 H          -6.1969  -29.4042  -23.2220 H      401  DMS401      0.0000
      8 H          -5.2677  -27.5739  -19.8822 H      401  DMS401      0.0000
      9 H          -6.5809  -26.3402  -19.8012 H      401  DMS401      0.0000
     10 H          -5.3515  -26.2566  -21.1214 H      401  DMS401      0.0000
@<TRIPOS>BOND
     1     1     2    2
     2     1     3    1
     3     1     4    1
     4     3     5    1
     5     3     6    1
     6     3     7    1
     7     4     8    1
     8     4     9    1
     9     4    10    1

