EDO_1_A_312
  -ISIS-            3D

 10  9  0  0  0  0  0  0  0  0  1 V2000
   32.1160   -1.3750   12.2480 C   0  0  0  0  0
   32.0620   -2.8050   12.2860 O   0  0  0  0  0
   33.1260   -0.9770   11.1790 C   0  0  0  0  0
   34.4350   -1.2950   11.6710 O   0  0  0  0  0
   32.3895   -0.9713   13.2450 H   0  0  0  0  0
   31.1081   -0.9868   11.9941 H   0  0  0  0  0
   32.9490   -3.1024   12.4512 H   0  0  0  0  0
   33.0628    0.1140   10.9810 H   0  0  0  0  0
   32.9329   -1.5070   10.2228 H   0  0  0  0  0
   35.0676   -1.0393   11.0131 H   0  0  0  0  0
  1  2  1  0  0  0
  1  3  1  0  0  0
  1  5  1  0  0  0
  1  6  1  0  0  0
  2  7  1  0  0  0
  3  4  1  0  0  0
  3  8  1  0  0  0
  3  9  1  0  0  0
  4 10  1  0  0  0
M  END
$$$$
