@<TRIPOS>MOLECULE
EDO_1_A_303
 10 9 0 0 0
SMALL
NO_CHARGES

@<TRIPOS>ATOM
      1 C1         -0.9890   -6.2480   18.6460 C.3    303  EDO303      0.0000
      2 O1          0.3840   -6.5800   18.4370 O.3    303  EDO303      0.0000
      3 C2         -1.7540   -7.5010   19.0860 C.3    303  EDO303      0.0000
      4 O2         -1.9420   -8.3530   17.9330 O.3    303  EDO303      0.0000
      5 H          -1.4261   -5.8181   17.7205 H      303  EDO303      0.0000
      6 H          -1.0555   -5.4709   19.4368 H      303  EDO303      0.0000
      7 H           0.8312   -5.8148   18.0989 H      303  EDO303      0.0000
      8 H          -2.7429   -7.2291   19.5118 H      303  EDO303      0.0000
      9 H          -1.1962   -8.0548   19.8685 H      303  EDO303      0.0000
     10 H          -2.6457   -7.9986   17.4054 H      303  EDO303      0.0000
@<TRIPOS>BOND
     1     1     2    1
     2     1     3    1
     3     1     5    1
     4     1     6    1
     5     2     7    1
     6     3     4    1
     7     3     8    1
     8     3     9    1
     9     4    10    1

