EDO_1_A_310
  -ISIS-            3D

 10  9  0  0  0  0  0  0  0  0  1 V2000
   33.4610  -19.9080   10.1370 C   0  0  0  0  0
   34.6800  -19.1790    9.9150 O   0  0  0  0  0
   32.3430  -18.9200   10.4620 C   0  0  0  0  0
   32.7660  -18.1100   11.5670 O   0  0  0  0  0
   33.6072  -20.6264   10.9707 H   0  0  0  0  0
   33.2161  -20.4968    9.2294 H   0  0  0  0  0
   34.7482  -18.5560   10.6300 H   0  0  0  0  0
   31.4095  -19.4610   10.7240 H   0  0  0  0  0
   32.1274  -18.2737    9.5850 H   0  0  0  0  0
   32.0682  -17.5020   11.7711 H   0  0  0  0  0
  1  2  1  0  0  0
  1  3  1  0  0  0
  1  5  1  0  0  0
  1  6  1  0  0  0
  2  7  1  0  0  0
  3  4  1  0  0  0
  3  8  1  0  0  0
  3  9  1  0  0  0
  4 10  1  0  0  0
M  END
$$$$
