@<TRIPOS>MOLECULE
EDO_1_A_307
 10 9 0 0 0
SMALL
NO_CHARGES

@<TRIPOS>ATOM
      1 C1         13.4230   -9.1750   15.1930 C.3    307  EDO307      0.0000
      2 O1         13.9570  -10.2490   15.9930 O.3    307  EDO307      0.0000
      3 C2         12.9360   -9.8080   13.9000 C.3    307  EDO307      0.0000
      4 O2         14.0550  -10.4220   13.2530 O.3    307  EDO307      0.0000
      5 H          14.2185   -8.4262   15.0013 H      307  EDO307      0.0000
      6 H          12.5974   -8.6677   15.7346 H      307  EDO307      0.0000
      7 H          13.2449  -10.8148   16.2611 H      307  EDO307      0.0000
      8 H          12.5005   -9.0334   13.2342 H      307  EDO307      0.0000
      9 H          12.1472  -10.5647   14.0949 H      307  EDO307      0.0000
     10 H          13.7541  -10.8242   12.4484 H      307  EDO307      0.0000
@<TRIPOS>BOND
     1     1     2    1
     2     1     3    1
     3     1     5    1
     4     1     6    1
     5     2     7    1
     6     3     4    1
     7     3     8    1
     8     3     9    1
     9     4    10    1

