@<TRIPOS>MOLECULE
EDO_1_M_208
 10 9 0 0 0
SMALL
NO_CHARGES

@<TRIPOS>ATOM
      1 C1         -5.7190    0.7090    9.2040 C.3    208  EDO208      0.0000
      2 O1         -5.6420    2.0110    8.6040 O.3    208  EDO208      0.0000
      3 C2         -6.7160    0.8040   10.3480 C.3    208  EDO208      0.0000
      4 O2         -7.6050   -0.3150   10.2650 O.3    208  EDO208      0.0000
      5 H          -4.7188    0.3936    9.5671 H      208  EDO208      0.0000
      6 H          -6.0516   -0.0249    8.4399 H      208  EDO208      0.0000
      7 H          -5.0753    1.9526    7.8461 H      208  EDO208      0.0000
      8 H          -7.3097    1.7406   10.2847 H      208  EDO208      0.0000
      9 H          -6.1953    0.8044   11.3283 H      208  EDO208      0.0000
     10 H          -8.2637   -0.2195   10.9400 H      208  EDO208      0.0000
@<TRIPOS>BOND
     1     1     2    1
     2     1     3    1
     3     1     5    1
     4     1     6    1
     5     2     7    1
     6     3     4    1
     7     3     8    1
     8     3     9    1
     9     4    10    1

