EDO_1_M_204
  -ISIS-            3D

 10  9  0  0  0  0  0  0  0  0  1 V2000
   -7.2390   23.0490   41.1900 C   0  0  0  0  0
   -7.7450   24.3660   41.0420 O   0  0  0  0  0
   -7.5270   22.1790   39.9770 C   0  0  0  0  0
   -6.6320   22.5040   38.9280 O   0  0  0  0  0
   -7.7105   22.5897   42.0855 H   0  0  0  0  0
   -6.1468   23.0858   41.3887 H   0  0  0  0  0
   -7.5427   24.8553   41.8284 H   0  0  0  0  0
   -8.5768   22.2978   39.6367 H   0  0  0  0  0
   -7.3876   21.1083   40.2342 H   0  0  0  0  0
   -6.7635   23.4223   38.7263 H   0  0  0  0  0
  1  2  1  0  0  0
  1  3  1  0  0  0
  1  5  1  0  0  0
  1  6  1  0  0  0
  2  7  1  0  0  0
  3  4  1  0  0  0
  3  8  1  0  0  0
  3  9  1  0  0  0
  4 10  1  0  0  0
M  END
$$$$
