EDO_1_A_318
  -ISIS-            3D

 10  9  0  0  0  0  0  0  0  0  1 V2000
    6.7980   18.4430   -1.1970 C   0  0  0  0  0
    7.9460   18.3740   -2.0500 O   0  0  0  0  0
    7.1750   17.9450    0.1960 C   0  0  0  0  0
    8.4230   18.5240    0.6040 O   0  0  0  0  0
    5.9716   17.8334   -1.6189 H   0  0  0  0  0
    6.4458   19.4951   -1.1422 H   0  0  0  0  0
    7.6957   18.6879   -2.9086 H   0  0  0  0  0
    7.2756   16.8391    0.1950 H   0  0  0  0  0
    6.3893   18.2026    0.9353 H   0  0  0  0  0
    8.9896   18.4997   -0.1591 H   0  0  0  0  0
  1  2  1  0  0  0
  1  3  1  0  0  0
  1  5  1  0  0  0
  1  6  1  0  0  0
  2  7  1  0  0  0
  3  4  1  0  0  0
  3  8  1  0  0  0
  3  9  1  0  0  0
  4 10  1  0  0  0
M  END
$$$$
