@<TRIPOS>MOLECULE
EDO_1_A_319
 10 9 0 0 0
SMALL
NO_CHARGES

@<TRIPOS>ATOM
      1 C1         34.1470   -2.4280    0.3880 C.3    319  EDO319      0.0000
      2 O1         34.8420   -1.5510    1.2830 O.3    319  EDO319      0.0000
      3 C2         34.2510   -3.8560    0.9160 C.3    319  EDO319      0.0000
      4 O2         33.4770   -4.0190    2.1260 O.3    319  EDO319      0.0000
      5 H          34.6111   -2.3512   -0.6168 H      319  EDO319      0.0000
      6 H          33.0885   -2.1097    0.2903 H      319  EDO319      0.0000
      7 H          34.5294   -1.7485    2.1583 H      319  EDO319      0.0000
      8 H          35.3090   -4.1158    1.1272 H      319  EDO319      0.0000
      9 H          33.8933   -4.5754    0.1490 H      319  EDO319      0.0000
     10 H          32.5904   -4.2528    1.8855 H      319  EDO319      0.0000
@<TRIPOS>BOND
     1     1     2    1
     2     1     3    1
     3     1     5    1
     4     1     6    1
     5     2     7    1
     6     3     4    1
     7     3     8    1
     8     3     9    1
     9     4    10    1

