@<TRIPOS>MOLECULE
EDO_1_M_209
 10 9 0 0 0
SMALL
NO_CHARGES

@<TRIPOS>ATOM
      1 C1         -2.4180    1.4390   33.9220 C.3    209  EDO209      0.0000
      2 O1         -1.1420    1.4240   34.6120 O.3    209  EDO209      0.0000
      3 C2         -2.6790    0.1290   33.1800 C.3    209  EDO209      0.0000
      4 O2         -2.3610   -0.9520   34.0810 O.3    209  EDO209      0.0000
      5 H          -2.4385    2.2956   33.2172 H      209  EDO209      0.0000
      6 H          -3.2207    1.6174   34.6687 H      209  EDO209      0.0000
      7 H          -1.0623    0.5554   34.9903 H      209  EDO209      0.0000
      8 H          -2.0349    0.0602   32.2780 H      209  EDO209      0.0000
      9 H          -3.7379    0.0606   32.8541 H      209  EDO209      0.0000
     10 H          -2.5225   -1.7686   33.6277 H      209  EDO209      0.0000
@<TRIPOS>BOND
     1     1     2    1
     2     1     3    1
     3     1     5    1
     4     1     6    1
     5     2     7    1
     6     3     4    1
     7     3     8    1
     8     3     9    1
     9     4    10    1

