EDO_1_A_308
  -ISIS-            3D

 10  9  0  0  0  0  0  0  0  0  1 V2000
   26.5600   -9.5170   -4.0390 C   0  0  0  0  0
   26.7750   -8.5820   -5.1000 O   0  0  0  0  0
   27.7000  -10.5360   -3.9570 C   0  0  0  0  0
   28.9890   -9.9050   -3.7970 O   0  0  0  0  0
   25.5947  -10.0423   -4.2001 H   0  0  0  0  0
   26.4792   -8.9672   -3.0771 H   0  0  0  0  0
   26.0579   -7.9622   -5.0998 H   0  0  0  0  0
   27.7178  -11.1604   -4.8752 H   0  0  0  0  0
   27.5347  -11.2259   -3.1036 H   0  0  0  0  0
   29.0136   -9.1960   -4.4292 H   0  0  0  0  0
  1  2  1  0  0  0
  1  3  1  0  0  0
  1  5  1  0  0  0
  1  6  1  0  0  0
  2  7  1  0  0  0
  3  4  1  0  0  0
  3  8  1  0  0  0
  3  9  1  0  0  0
  4 10  1  0  0  0
M  END
$$$$
