EDO_1_M_208
  -ISIS-            3D

 10  9  0  0  0  0  0  0  0  0  1 V2000
   -5.7190    0.7090    9.2040 C   0  0  0  0  0
   -5.6420    2.0110    8.6040 O   0  0  0  0  0
   -6.7160    0.8040   10.3480 C   0  0  0  0  0
   -7.6050   -0.3150   10.2650 O   0  0  0  0  0
   -4.7188    0.3936    9.5671 H   0  0  0  0  0
   -6.0516   -0.0249    8.4399 H   0  0  0  0  0
   -5.0753    1.9526    7.8461 H   0  0  0  0  0
   -7.3097    1.7406   10.2847 H   0  0  0  0  0
   -6.1953    0.8044   11.3283 H   0  0  0  0  0
   -8.2637   -0.2195   10.9400 H   0  0  0  0  0
  1  2  1  0  0  0
  1  3  1  0  0  0
  1  5  1  0  0  0
  1  6  1  0  0  0
  2  7  1  0  0  0
  3  4  1  0  0  0
  3  8  1  0  0  0
  3  9  1  0  0  0
  4 10  1  0  0  0
M  END
$$$$
