@<TRIPOS>MOLECULE
EDO_1_A_304
 10 9 0 0 0
SMALL
NO_CHARGES

@<TRIPOS>ATOM
      1 C1         13.7110   16.4410   38.0250 C.3    304  EDO304      0.0000
      2 O1         14.8530   16.1900   37.1890 O.3    304  EDO304      0.0000
      3 C2         14.0780   16.3230   39.5070 C.3    304  EDO304      0.0000
      4 O2         14.5610   15.0070   39.8400 O.3    304  EDO304      0.0000
      5 H          12.9185   15.7063   37.7722 H      304  EDO304      0.0000
      6 H          13.2975   17.4481   37.8051 H      304  EDO304      0.0000
      7 H          15.3373   16.9992   37.0911 H      304  EDO304      0.0000
      8 H          13.1911   16.5427   40.1368 H      304  EDO304      0.0000
      9 H          14.8536   17.0718   39.7724 H      304  EDO304      0.0000
     10 H          15.1350   14.7440   39.1300 H      304  EDO304      0.0000
@<TRIPOS>BOND
     1     1     2    1
     2     1     3    1
     3     1     5    1
     4     1     6    1
     5     2     7    1
     6     3     4    1
     7     3     8    1
     8     3     9    1
     9     4    10    1

