@<TRIPOS>MOLECULE
EDO_1_A_308
 10 9 0 0 0
SMALL
NO_CHARGES

@<TRIPOS>ATOM
      1 C1         26.5600   -9.5170   -4.0390 C.3    308  EDO308      0.0000
      2 O1         26.7750   -8.5820   -5.1000 O.3    308  EDO308      0.0000
      3 C2         27.7000  -10.5360   -3.9570 C.3    308  EDO308      0.0000
      4 O2         28.9890   -9.9050   -3.7970 O.3    308  EDO308      0.0000
      5 H          25.5947  -10.0423   -4.2001 H      308  EDO308      0.0000
      6 H          26.4792   -8.9672   -3.0771 H      308  EDO308      0.0000
      7 H          26.0579   -7.9622   -5.0998 H      308  EDO308      0.0000
      8 H          27.7178  -11.1604   -4.8752 H      308  EDO308      0.0000
      9 H          27.5347  -11.2259   -3.1036 H      308  EDO308      0.0000
     10 H          29.0136   -9.1960   -4.4292 H      308  EDO308      0.0000
@<TRIPOS>BOND
     1     1     2    1
     2     1     3    1
     3     1     5    1
     4     1     6    1
     5     2     7    1
     6     3     4    1
     7     3     8    1
     8     3     9    1
     9     4    10    1

