@<TRIPOS>MOLECULE
EDO_1_A_318
 10 9 0 0 0
SMALL
NO_CHARGES

@<TRIPOS>ATOM
      1 C1          6.7980   18.4430   -1.1970 C.3    318  EDO318      0.0000
      2 O1          7.9460   18.3740   -2.0500 O.3    318  EDO318      0.0000
      3 C2          7.1750   17.9450    0.1960 C.3    318  EDO318      0.0000
      4 O2          8.4230   18.5240    0.6040 O.3    318  EDO318      0.0000
      5 H           5.9716   17.8334   -1.6189 H      318  EDO318      0.0000
      6 H           6.4458   19.4951   -1.1422 H      318  EDO318      0.0000
      7 H           7.6957   18.6879   -2.9086 H      318  EDO318      0.0000
      8 H           7.2756   16.8391    0.1950 H      318  EDO318      0.0000
      9 H           6.3893   18.2026    0.9353 H      318  EDO318      0.0000
     10 H           8.9896   18.4997   -0.1591 H      318  EDO318      0.0000
@<TRIPOS>BOND
     1     1     2    1
     2     1     3    1
     3     1     5    1
     4     1     6    1
     5     2     7    1
     6     3     4    1
     7     3     8    1
     8     3     9    1
     9     4    10    1

