TLA_1_A_314
  -ISIS-            3D

 14 13  0  0  0  0  0  0  0  0  1 V2000
   31.2630    9.5510   30.1740 O   0  0  0  0  0
   30.1740   10.9800   31.4770 O   0  0  0  0  0
   30.7700    9.9040   31.2580 C   0  0  0  0  0
   30.9980    8.9400   32.4330 C   0  0  0  0  0
   30.3060    9.3850   33.6260 O   0  0  0  0  0
   32.5030    8.8910   32.6990 C   0  0  0  0  0
   32.9620   10.2070   33.0300 O   0  0  0  0  0
   32.7540    7.9270   33.8530 C   0  0  0  0  0
   32.1870    6.8160   33.7710 O   0  0  0  0  0
   33.4630    8.3350   34.7980 O   0  0  0  0  0
   30.6183    7.9361   32.1455 H   0  0  0  0  0
   30.1923   10.3280   33.5611 H   0  0  0  0  0
   33.0499    8.5210   31.8051 H   0  0  0  0  0
   33.5830   10.1452   33.7480 H   0  0  0  0  0
  1  3  2  0  0  0
  2  3  2  0  0  0
  3  4  1  0  0  0
  4  5  1  0  0  0
  4  6  1  0  0  0
  4 11  1  0  0  0
  5 12  1  0  0  0
  6  7  1  0  0  0
  6  8  1  0  0  0
  6 13  1  0  0  0
  7 14  1  0  0  0
  8  9  2  0  0  0
  8 10  2  0  0  0
M  END
$$$$
