@<TRIPOS>MOLECULE
TLA_1_A_314
 14 13 0 0 0
SMALL
NO_CHARGES

@<TRIPOS>ATOM
      1 O1         31.2630    9.5510   30.1740 O.co2  314  TLA314     -0.5000
      2 O11        30.1740   10.9800   31.4770 O.co2  314  TLA314     -0.5000
      3 C1         30.7700    9.9040   31.2580 C.2    314  TLA314      0.0000
      4 C2         30.9980    8.9400   32.4330 C.3    314  TLA314      0.0000
      5 O2         30.3060    9.3850   33.6260 O.3    314  TLA314      0.0000
      6 C3         32.5030    8.8910   32.6990 C.3    314  TLA314      0.0000
      7 O3         32.9620   10.2070   33.0300 O.3    314  TLA314      0.0000
      8 C4         32.7540    7.9270   33.8530 C.2    314  TLA314      0.0000
      9 O4         32.1870    6.8160   33.7710 O.co2  314  TLA314     -0.5000
     10 O41        33.4630    8.3350   34.7980 O.co2  314  TLA314     -0.5000
     11 H          30.6183    7.9361   32.1455 H      314  TLA314      0.0000
     12 H          30.1923   10.3280   33.5611 H      314  TLA314      0.0000
     13 H          33.0499    8.5210   31.8051 H      314  TLA314      0.0000
     14 H          33.5830   10.1452   33.7480 H      314  TLA314      0.0000
@<TRIPOS>BOND
     1     1     3   ar
     2     2     3   ar
     3     3     4    1
     4     4     5    1
     5     4     6    1
     6     4    11    1
     7     5    12    1
     8     6     7    1
     9     6     8    1
    10     6    13    1
    11     7    14    1
    12     8     9   ar
    13     8    10   ar

