DMS_2_A_401
  -ISIS-            3D

 10  9  0  0  0  0  0  0  0  0  1 V2000
   -6.7980  -27.9400  -21.7110 S   0  0  0  0  0
   -7.5670  -26.9140  -22.4790 O   0  0  0  0  0
   -5.5290  -28.5300  -22.8180 C   0  0  0  0  0
   -5.7470  -27.0160  -20.6280 C   0  0  0  0  0
   -4.8193  -29.1784  -22.2646 H   0  0  0  0  0
   -4.9792  -27.6770  -23.2661 H   0  0  0  0  0
   -5.9986  -29.1234  -23.6291 H   0  0  0  0  0
   -5.0289  -27.6975  -20.1277 H   0  0  0  0  0
   -6.3653  -26.5183  -19.8531 H   0  0  0  0  0
   -5.1884  -26.2429  -21.1945 H   0  0  0  0  0
  1  2  2  0  0  0
  1  3  1  0  0  0
  1  4  1  0  0  0
  3  5  1  0  0  0
  3  6  1  0  0  0
  3  7  1  0  0  0
  4  8  1  0  0  0
  4  9  1  0  0  0
  4 10  1  0  0  0
M  END
$$$$
