@<TRIPOS>MOLECULE
DMS_2_A_401
 10 9 0 0 0
SMALL
NO_CHARGES

@<TRIPOS>ATOM
      1 S          -6.7980  -27.9400  -21.7110 S.o    401  DMS401      0.0000
      2 O          -7.5670  -26.9140  -22.4790 O.2    401  DMS401      0.0000
      3 C1         -5.5290  -28.5300  -22.8180 C.3    401  DMS401      0.0000
      4 C2         -5.7470  -27.0160  -20.6280 C.3    401  DMS401      0.0000
      5 H          -4.8193  -29.1784  -22.2646 H      401  DMS401      0.0000
      6 H          -4.9792  -27.6770  -23.2661 H      401  DMS401      0.0000
      7 H          -5.9986  -29.1234  -23.6291 H      401  DMS401      0.0000
      8 H          -5.0289  -27.6975  -20.1277 H      401  DMS401      0.0000
      9 H          -6.3653  -26.5183  -19.8531 H      401  DMS401      0.0000
     10 H          -5.1884  -26.2429  -21.1945 H      401  DMS401      0.0000
@<TRIPOS>BOND
     1     1     2    2
     2     1     3    1
     3     1     4    1
     4     3     5    1
     5     3     6    1
     6     3     7    1
     7     4     8    1
     8     4     9    1
     9     4    10    1

