@<TRIPOS>MOLECULE
DMS_2_A_403
 10 9 0 0 0
SMALL
NO_CHARGES

@<TRIPOS>ATOM
      1 S          -2.4530  -18.7350   -8.1190 S.o    403  DMS403      0.0000
      2 O          -3.6470  -18.8510   -9.0670 O.2    403  DMS403      0.0000
      3 C1         -1.0710  -18.3160   -9.1640 C.3    403  DMS403      0.0000
      4 C2         -1.9660  -20.3850   -7.7710 C.3    403  DMS403      0.0000
      5 H          -0.1284  -18.3696   -8.5817 H      403  DMS403      0.0000
      6 H          -1.1992  -17.2811   -9.5419 H      403  DMS403      0.0000
      7 H          -1.0131  -19.0104  -10.0274 H      403  DMS403      0.0000
      8 H          -1.0021  -20.3878   -7.2223 H      403  DMS403      0.0000
      9 H          -1.8571  -20.9663   -8.7098 H      403  DMS403      0.0000
     10 H          -2.7365  -20.8697   -7.1372 H      403  DMS403      0.0000
@<TRIPOS>BOND
     1     1     2    2
     2     1     3    1
     3     1     4    1
     4     3     5    1
     5     3     6    1
     6     3     7    1
     7     4     8    1
     8     4     9    1
     9     4    10    1

