@<TRIPOS>MOLECULE
DMS_1_A_402
 10 9 0 0 0
SMALL
NO_CHARGES

@<TRIPOS>ATOM
      1 S           6.1970   -1.0980   -6.2500 S.o    402  DMS402      0.0000
      2 O           7.0590   -0.8510   -7.4340 O.2    402  DMS402      0.0000
      3 C1          7.2340   -0.9260   -4.8140 C.3    402  DMS402      0.0000
      4 C2          5.9530   -2.8490   -6.1480 C.3    402  DMS402      0.0000
      5 H           6.6733   -1.2288   -3.9061 H      402  DMS402      0.0000
      6 H           7.5394    0.1352   -4.7085 H      402  DMS402      0.0000
      7 H           8.1424   -1.5546   -4.9153 H      402  DMS402      0.0000
      8 H           5.4255   -3.1022   -5.2057 H      402  DMS402      0.0000
      9 H           6.9271   -3.3788   -6.1803 H      402  DMS402      0.0000
     10 H           5.3329   -3.1830   -7.0050 H      402  DMS402      0.0000
@<TRIPOS>BOND
     1     1     2    2
     2     1     3    1
     3     1     4    1
     4     3     5    1
     5     3     6    1
     6     3     7    1
     7     4     8    1
     8     4     9    1
     9     4    10    1

