DMS_1_B_602
  -ISIS-            3D

 10  9  0  0  0  0  0  0  0  0  1 V2000
   21.0050   -9.2140   -9.2930 S   0  0  0  0  0
   22.3910   -8.6110   -9.2060 O   0  0  0  0  0
   19.9300   -8.0730   -8.4660 C   0  0  0  0  0
   20.9480  -10.4990   -8.0890 C   0  0  0  0  0
   18.9181   -8.5153   -8.3627 H   0  0  0  0  0
   19.8533   -7.1422   -9.0644 H   0  0  0  0  0
   20.3286   -7.8233   -7.4612 H   0  0  0  0  0
   19.9121  -10.8845   -7.9963 H   0  0  0  0  0
   21.2915  -10.1236   -7.1031 H   0  0  0  0  0
   21.6101  -11.3300   -8.4073 H   0  0  0  0  0
  1  2  2  0  0  0
  1  3  1  0  0  0
  1  4  1  0  0  0
  3  5  1  0  0  0
  3  6  1  0  0  0
  3  7  1  0  0  0
  4  8  1  0  0  0
  4  9  1  0  0  0
  4 10  1  0  0  0
M  END
$$$$
