@<TRIPOS>MOLECULE
DMS_1_A_601
 10 9 0 0 0
SMALL
NO_CHARGES

@<TRIPOS>ATOM
      1 S           6.5220    4.0700  -11.4700 S.o    601  DMS601      0.0000
      2 O           6.0930    4.1870  -12.8850 O.2    601  DMS601      0.0000
      3 C1          5.1550    3.2750  -10.6700 C.3    601  DMS601      0.0000
      4 C2          7.6930    2.7280  -11.4200 C.3    601  DMS601      0.0000
      5 H           5.4340    3.0053   -9.6308 H      601  DMS601      0.0000
      6 H           4.8625    2.3584  -11.2221 H      601  DMS601      0.0000
      7 H           4.2913    3.9703  -10.6395 H      601  DMS601      0.0000
      8 H           7.9298    2.4768  -10.3658 H      601  DMS601      0.0000
      9 H           8.6262    3.0364  -11.9343 H      601  DMS601      0.0000
     10 H           7.2773    1.8341  -11.9285 H      601  DMS601      0.0000
@<TRIPOS>BOND
     1     1     2    2
     2     1     3    1
     3     1     4    1
     4     3     5    1
     5     3     6    1
     6     3     7    1
     7     4     8    1
     8     4     9    1
     9     4    10    1

