@<TRIPOS>MOLECULE
DMS_1_B_603
 10 9 0 0 0
SMALL
NO_CHARGES

@<TRIPOS>ATOM
      1 S          24.1750   -9.2050  -37.9150 S.o    603  DMS603      0.0000
      2 O          25.5440   -8.5950  -37.7790 O.2    603  DMS603      0.0000
      3 C1         24.4190  -10.9630  -38.0440 C.3    603  DMS603      0.0000
      4 C2         23.6800   -8.9120  -39.6080 C.3    603  DMS603      0.0000
      5 H          23.4592  -11.4583  -38.2973 H      603  DMS603      0.0000
      6 H          24.7784  -11.3550  -37.0705 H      603  DMS603      0.0000
      7 H          25.1716  -11.1923  -38.8257 H      603  DMS603      0.0000
      8 H          22.7398   -9.4596  -39.8243 H      603  DMS603      0.0000
      9 H          24.4738   -9.2484  -40.3057 H      603  DMS603      0.0000
     10 H          23.5051   -7.8266  -39.7549 H      603  DMS603      0.0000
@<TRIPOS>BOND
     1     1     2    2
     2     1     3    1
     3     1     4    1
     4     3     5    1
     5     3     6    1
     6     3     7    1
     7     4     8    1
     8     4     9    1
     9     4    10    1

