@<TRIPOS>MOLECULE
DMS_1_A_602
 10 9 0 0 0
SMALL
NO_CHARGES

@<TRIPOS>ATOM
      1 S           7.2240  -17.8290   -1.8740 S.o    602  DMS602      0.0000
      2 O           6.3750  -17.2040   -2.9520 O.2    602  DMS602      0.0000
      3 C1          6.4230  -19.3540   -1.4680 C.3    602  DMS602      0.0000
      4 C2          6.8630  -16.9690   -0.3650 C.3    602  DMS602      0.0000
      5 H           6.9107  -19.8126   -0.5836 H      602  DMS602      0.0000
      6 H           6.5091  -20.0529   -2.3251 H      602  DMS602      0.0000
      7 H           5.3489  -19.1823   -1.2498 H      602  DMS602      0.0000
      8 H           7.3464  -17.4863    0.4888 H      602  DMS602      0.0000
      9 H           5.7673  -16.9234   -0.1977 H      602  DMS602      0.0000
     10 H           7.2611  -15.9356   -0.4287 H      602  DMS602      0.0000
@<TRIPOS>BOND
     1     1     2    2
     2     1     3    1
     3     1     4    1
     4     3     5    1
     5     3     6    1
     6     3     7    1
     7     4     8    1
     8     4     9    1
     9     4    10    1

