DMS_1_B_606
  -ISIS-            3D

 10  9  0  0  0  0  0  0  0  0  1 V2000
   16.6740    5.0000  -25.1100 S   0  0  0  0  0
   16.4060    3.8270  -26.0240 O   0  0  0  0  0
   17.9840    5.9430  -25.8420 C   0  0  0  0  0
   15.4040    6.1800  -25.4680 C   0  0  0  0  0
   18.1133    6.9003  -25.2968 H   0  0  0  0  0
   17.7671    6.1502  -26.9102 H   0  0  0  0  0
   18.9288    5.3661  -25.7747 H   0  0  0  0  0
   15.6122    7.1337  -24.9412 H   0  0  0  0  0
   14.4298    5.7854  -25.1140 H   0  0  0  0  0
   15.3388    6.3661  -26.5599 H   0  0  0  0  0
  1  2  2  0  0  0
  1  3  1  0  0  0
  1  4  1  0  0  0
  3  5  1  0  0  0
  3  6  1  0  0  0
  3  7  1  0  0  0
  4  8  1  0  0  0
  4  9  1  0  0  0
  4 10  1  0  0  0
M  END
$$$$
