@<TRIPOS>MOLECULE
DMS_1_B_601
 10 9 0 0 0
SMALL
NO_CHARGES

@<TRIPOS>ATOM
      1 S          -0.8110  -11.8230  -18.3860 S.o    601  DMS601      0.0000
      2 O          -0.9910  -13.3190  -18.5000 O.2    601  DMS601      0.0000
      3 C1          0.0970  -11.2680  -19.8160 C.3    601  DMS601      0.0000
      4 C2          0.4360  -11.5660  -17.1410 C.3    601  DMS601      0.0000
      5 H           0.3576  -10.1959  -19.7017 H      601  DMS601      0.0000
      6 H          -0.5331  -11.3912  -20.7205 H      601  DMS601      0.0000
      7 H           1.0248  -11.8641  -19.9360 H      601  DMS601      0.0000
      8 H           0.6958  -10.4890  -17.0874 H      601  DMS601      0.0000
      9 H           1.3453  -12.1544  -17.3811 H      601  DMS601      0.0000
     10 H           0.0433  -11.8907  -16.1557 H      601  DMS601      0.0000
@<TRIPOS>BOND
     1     1     2    2
     2     1     3    1
     3     1     4    1
     4     3     5    1
     5     3     6    1
     6     3     7    1
     7     4     8    1
     8     4     9    1
     9     4    10    1

