@<TRIPOS>MOLECULE
4BY_1_A_201
 21 22 0 0 0
SMALL
NO_CHARGES

@<TRIPOS>ATOM
      1 C1         10.8630    2.3730   18.1110 C.ar   201  4BY201      0.0000
      2 N2         11.2130    2.6860   19.3420 N.ar   201  4BY201      0.0000
      3 C3         10.2720    3.4640   17.5010 C.ar   201  4BY201      0.0000
      4 C4         10.2650    4.4740   18.4700 C.ar   201  4BY201      0.0000
      5 C5         10.8580    3.9480   19.6030 C.ar   201  4BY201      0.0000
      6 C6         11.1230    1.0290   17.4660 C.2    201  4BY201      0.0000
      7 C7          9.7920    5.7890   18.4550 C.ar   201  4BY201      0.0000
      8 O8         11.1530    0.9200   16.2180 O.co2  201  4BY201     -0.5000
      9 C9         10.9960    4.7340   20.7500 C.ar   201  4BY201      0.0000
     10 O10        11.3320    0.0410   18.2060 O.co2  201  4BY201     -0.5000
     11 C11         9.9320    6.5670   19.5980 C.ar   201  4BY201      0.0000
     12 C12        10.5330    6.0350   20.7370 C.ar   201  4BY201      0.0000
     13 C13         9.4200    8.0080   19.6250 C.3    201  4BY201      0.0000
     14 H          11.8109    1.8831   20.1979 H      201  4BY201      0.0000
     15 H           9.8869    3.5317   16.4750 H      201  4BY201      0.0000
     16 H           9.3164    6.1978   17.5486 H      201  4BY201      0.0000
     17 H          11.4701    4.3155   21.6531 H      201  4BY201      0.0000
     18 H          10.6429    6.6530   21.6442 H      201  4BY201      0.0000
     19 H           9.6021    8.5021   20.6044 H      201  4BY201      0.0000
     20 H           8.3246    8.0430   19.4331 H      201  4BY201      0.0000
     21 H           9.9220    8.6215   18.8443 H      201  4BY201      0.0000
@<TRIPOS>BOND
     1     1     2   ar
     2     1     3   ar
     3     1     6    1
     4     2     5   ar
     5     2    14    1
     6     3     4   ar
     7     3    15    1
     8     4     5   ar
     9     4     7   ar
    10     5     9   ar
    11     6     8   ar
    12     6    10   ar
    13     7    11   ar
    14     7    16    1
    15     9    12   ar
    16     9    17    1
    17    11    12   ar
    18    11    13    1
    19    12    18    1
    20    13    19    1
    21    13    20    1
    22    13    21    1

