@<TRIPOS>MOLECULE
APR_1_A_401
 58 61 0 0 0
SMALL
NO_CHARGES

@<TRIPOS>ATOM
      1 N1          7.6680    0.3040  -11.2710 N.ar   401  APR401      0.0000
      2 C2          8.2150   -0.3610  -10.2450 C.ar   401  APR401      0.0000
      3 N3          8.1430   -1.6560   -9.9460 N.ar   401  APR401      0.0000
      4 C4          7.3980   -2.3080  -10.8520 C.ar   401  APR401      0.0000
      5 C5          6.7720   -1.7680  -11.9550 C.ar   401  APR401      0.0000
      6 C6          6.9220   -0.3850  -12.1670 C.ar   401  APR401      0.0000
      7 N6          6.3760    0.2710  -13.1870 N.pl3  401  APR401      0.0000
      8 N7          6.0940   -2.7600  -12.6540 N.ar   401  APR401      0.0000
      9 C8          6.3190   -3.8600  -11.9730 C.ar   401  APR401      0.0000
     10 N9          7.1050   -3.6450  -10.8680 N.ar   401  APR401      0.0000
     11 C1'         7.5540   -4.6280   -9.8890 C.3    401  APR401      0.0000
     12 C2'         6.8260   -5.9640   -9.9850 C.3    401  APR401      0.0000
     13 O2'         5.6290   -5.9620   -9.2370 O.3    401  APR401      0.0000
     14 C3'         7.8800   -6.9160   -9.4140 C.3    401  APR401      0.0000
     15 O3'         7.8550   -6.9290   -7.9930 O.3    401  APR401      0.0000
     16 O4'         8.9150   -4.9010  -10.1360 O.3    401  APR401      0.0000
     17 C4'         9.1880   -6.3140   -9.9440 C.3    401  APR401      0.0000
     18 C5'         9.7090   -6.8960  -11.2350 C.3    401  APR401      0.0000
     19 O5'         8.6290   -7.5720  -11.9270 O.3    401  APR401      0.0000
     20 PA          8.7110   -7.7160  -13.5220 P.3    401  APR401      0.0000
     21 O1A         8.8500   -6.3620  -14.1360 O.co2  401  APR401      0.0000
     22 O2A         7.6030   -8.5970  -13.9970 O.co2  401  APR401      0.0000
     23 O3A        10.1000   -8.5020  -13.6880 O.3    401  APR401      0.0000
     24 PB         10.4750  -10.0610  -13.6370 P.3    401  APR401      0.0000
     25 O1B         9.7230  -10.6970  -12.5150 O.co2  401  APR401      0.0000
     26 O2B        11.9610  -10.1980  -13.6610 O.co2  401  APR401      0.0000
     27 O5D         9.8720  -10.5660  -15.0350 O.3    401  APR401      0.0000
     28 C5D        10.6130  -10.2870  -16.2500 C.3    401  APR401      0.0000
     29 O4D         8.6130   -9.5450  -17.3680 O.3    401  APR401      0.0000
     30 O1D         8.1830   -7.4880  -18.3290 O.3    401  APR401      0.0000
     31 C1D         8.5250   -8.8010  -18.5810 C.3    401  APR401      0.0000
     32 O2D         9.9670   -8.6650  -20.5940 O.3    401  APR401      0.0000
     33 C2D         9.9220   -8.8880  -19.2000 C.3    401  APR401      0.0000
     34 O3D         9.9090  -11.2760  -19.7450 O.3    401  APR401      0.0000
     35 C3D        10.3630  -10.2970  -18.8200 C.3    401  APR401      0.0000
     36 C4D         9.7100  -10.4870  -17.4430 C.3    401  APR401      0.0000
     37 H           8.8118    0.2531   -9.5486 H      401  APR401      0.0000
     38 H           5.9362   -4.8502  -12.2441 H      401  APR401      0.0000
     39 H           7.4472   -4.2141   -8.8631 H      401  APR401      0.0000
     40 H           6.6267   -6.2656  -11.0315 H      401  APR401      0.0000
     41 H           4.9916   -5.4189   -9.6814 H      401  APR401      0.0000
     42 H           7.7237   -7.9532   -9.7754 H      401  APR401      0.0000
     43 H           6.9402   -6.9141   -7.7350 H      401  APR401      0.0000
     44 H           9.9803   -6.4138   -9.1711 H      401  APR401      0.0000
     45 H          10.5034   -7.6410  -11.0166 H      401  APR401      0.0000
     46 H          10.1690   -6.1043  -11.8618 H      401  APR401      0.0000
     47 H          11.4853  -10.9711  -16.3123 H      401  APR401      0.0000
     48 H          10.9995   -9.2460  -16.2418 H      401  APR401      0.0000
     49 H           8.7347   -7.1380  -17.6424 H      401  APR401      0.0000
     50 H           7.7736   -9.2688  -19.2467 H      401  APR401      0.0000
     51 H           9.4767   -9.3643  -21.0093 H      401  APR401      0.0000
     52 H          10.5947   -8.1593  -18.7002 H      401  APR401      0.0000
     53 H          10.6056  -11.4499  -20.3644 H      401  APR401      0.0000
     54 H          11.4697  -10.3478  -18.7335 H      401  APR401      0.0000
     55 H           9.2959  -11.5174  -17.3889 H      401  APR401      0.0000
     56 H           5.8194   -0.2942  -13.8419 H      401  APR401      0.0000
     57 H           6.5632    1.2807  -13.2238 H      401  APR401      0.0000
     58 H           8.9257   -6.4563  -15.2612 H      401  APR401      0.0000
@<TRIPOS>BOND
     1     1     2   ar
     2     1     6   ar
     3     2     3   ar
     4     2    37    1
     5     3     4   ar
     6     4     5   ar
     7     4    10   ar
     8     5     6   ar
     9     5     8   ar
    10     6     7    1
    11     7    56    1
    12     7    57    1
    13     8     9   ar
    14     9    10   ar
    15     9    38    1
    16    10    11    1
    17    11    12    1
    18    11    16    1
    19    11    39    1
    20    12    13    1
    21    12    14    1
    22    12    40    1
    23    13    41    1
    24    14    15    1
    25    14    17    1
    26    14    42    1
    27    15    43    1
    28    16    17    1
    29    17    18    1
    30    17    44    1
    31    18    19    1
    32    18    45    1
    33    18    46    1
    34    19    20    1
    35    20    21    1
    36    20    22    2
    37    20    23    1
    38    23    24    1
    39    24    25    2
    40    24    26    2
    41    24    27    1
    42    27    28    1
    43    28    36    1
    44    28    47    1
    45    28    48    1
    46    29    31    1
    47    29    36    1
    48    30    31    1
    49    30    49    1
    50    31    33    1
    51    31    50    1
    52    32    33    1
    53    32    51    1
    54    33    35    1
    55    33    52    1
    56    34    35    1
    57    34    53    1
    58    35    36    1
    59    35    54    1
    60    36    55    1
    61    21    58    1

