DMS_1_A_202
  -ISIS-            3D

 10  9  0  0  0  0  0  0  0  0  1 V2000
   -0.6490    9.4950   -7.2220 S   0  0  0  0  0
    0.0790    8.2470   -6.9370 O   0  0  0  0  0
   -2.3030    9.1240   -6.7980 C   0  0  0  0  0
   -0.9290    9.4690   -8.9590 C   0  0  0  0  0
   -2.9768    9.9351   -7.1425 H   0  0  0  0  0
   -2.3889    9.0430   -5.6949 H   0  0  0  0  0
   -2.6238    8.1627   -7.2494 H   0  0  0  0  0
   -1.6362   10.2750   -9.2432 H   0  0  0  0  0
   -1.3376    8.4888   -9.2801 H   0  0  0  0  0
    0.0316    9.6427   -9.4860 H   0  0  0  0  0
  1  2  2  0  0  0
  1  3  1  0  0  0
  1  4  1  0  0  0
  3  5  1  0  0  0
  3  6  1  0  0  0
  3  7  1  0  0  0
  4  8  1  0  0  0
  4  9  1  0  0  0
  4 10  1  0  0  0
M  END
$$$$
