@<TRIPOS>MOLECULE
DMS_1_A_202
 10 9 0 0 0
SMALL
NO_CHARGES

@<TRIPOS>ATOM
      1 S          -0.6490    9.4950   -7.2220 S.o    202  DMS202      0.0000
      2 O           0.0790    8.2470   -6.9370 O.2    202  DMS202      0.0000
      3 C1         -2.3030    9.1240   -6.7980 C.3    202  DMS202      0.0000
      4 C2         -0.9290    9.4690   -8.9590 C.3    202  DMS202      0.0000
      5 H          -2.9768    9.9351   -7.1425 H      202  DMS202      0.0000
      6 H          -2.3889    9.0430   -5.6949 H      202  DMS202      0.0000
      7 H          -2.6238    8.1627   -7.2494 H      202  DMS202      0.0000
      8 H          -1.6362   10.2750   -9.2432 H      202  DMS202      0.0000
      9 H          -1.3376    8.4888   -9.2801 H      202  DMS202      0.0000
     10 H           0.0316    9.6427   -9.4860 H      202  DMS202      0.0000
@<TRIPOS>BOND
     1     1     2    2
     2     1     3    1
     3     1     4    1
     4     3     5    1
     5     3     6    1
     6     3     7    1
     7     4     8    1
     8     4     9    1
     9     4    10    1

