@<TRIPOS>MOLECULE
DMS_1_B_602
 10 9 0 0 0
SMALL
NO_CHARGES

@<TRIPOS>ATOM
      1 S          21.0050   -9.2140   -9.2930 S.o    602  DMS602      0.0000
      2 O          22.3910   -8.6110   -9.2060 O.2    602  DMS602      0.0000
      3 C1         19.9300   -8.0730   -8.4660 C.3    602  DMS602      0.0000
      4 C2         20.9480  -10.4990   -8.0890 C.3    602  DMS602      0.0000
      5 H          18.9181   -8.5153   -8.3627 H      602  DMS602      0.0000
      6 H          19.8533   -7.1422   -9.0644 H      602  DMS602      0.0000
      7 H          20.3286   -7.8233   -7.4612 H      602  DMS602      0.0000
      8 H          19.9121  -10.8845   -7.9963 H      602  DMS602      0.0000
      9 H          21.2915  -10.1236   -7.1031 H      602  DMS602      0.0000
     10 H          21.6101  -11.3300   -8.4073 H      602  DMS602      0.0000
@<TRIPOS>BOND
     1     1     2    2
     2     1     3    1
     3     1     4    1
     4     3     5    1
     5     3     6    1
     6     3     7    1
     7     4     8    1
     8     4     9    1
     9     4    10    1

