@<TRIPOS>MOLECULE
DMS_1_B_606
 10 9 0 0 0
SMALL
NO_CHARGES

@<TRIPOS>ATOM
      1 S          16.6740    5.0000  -25.1100 S.o    606  DMS606      0.0000
      2 O          16.4060    3.8270  -26.0240 O.2    606  DMS606      0.0000
      3 C1         17.9840    5.9430  -25.8420 C.3    606  DMS606      0.0000
      4 C2         15.4040    6.1800  -25.4680 C.3    606  DMS606      0.0000
      5 H          18.1133    6.9003  -25.2968 H      606  DMS606      0.0000
      6 H          17.7671    6.1502  -26.9102 H      606  DMS606      0.0000
      7 H          18.9288    5.3661  -25.7747 H      606  DMS606      0.0000
      8 H          15.6122    7.1337  -24.9412 H      606  DMS606      0.0000
      9 H          14.4298    5.7854  -25.1140 H      606  DMS606      0.0000
     10 H          15.3388    6.3661  -26.5599 H      606  DMS606      0.0000
@<TRIPOS>BOND
     1     1     2    2
     2     1     3    1
     3     1     4    1
     4     3     5    1
     5     3     6    1
     6     3     7    1
     7     4     8    1
     8     4     9    1
     9     4    10    1

