DMS_1_A_602
  -ISIS-            3D

 10  9  0  0  0  0  0  0  0  0  1 V2000
    7.2240  -17.8290   -1.8740 S   0  0  0  0  0
    6.3750  -17.2040   -2.9520 O   0  0  0  0  0
    6.4230  -19.3540   -1.4680 C   0  0  0  0  0
    6.8630  -16.9690   -0.3650 C   0  0  0  0  0
    6.9107  -19.8126   -0.5836 H   0  0  0  0  0
    6.5091  -20.0529   -2.3251 H   0  0  0  0  0
    5.3489  -19.1823   -1.2498 H   0  0  0  0  0
    7.3464  -17.4863    0.4888 H   0  0  0  0  0
    5.7673  -16.9234   -0.1977 H   0  0  0  0  0
    7.2611  -15.9356   -0.4287 H   0  0  0  0  0
  1  2  2  0  0  0
  1  3  1  0  0  0
  1  4  1  0  0  0
  3  5  1  0  0  0
  3  6  1  0  0  0
  3  7  1  0  0  0
  4  8  1  0  0  0
  4  9  1  0  0  0
  4 10  1  0  0  0
M  END
$$$$
