@<TRIPOS>MOLECULE
NHE_1_A_502
 29 29 0 0 0
SMALL
NO_CHARGES

@<TRIPOS>ATOM
      1 C3'         0.1250    8.4840   -7.3390 C.3    502  NHE502      0.0000
      2 C2'        -0.3460    8.8310   -5.9300 C.3    502  NHE502      0.0000
      3 C1'        -0.6320   10.3220   -5.7910 C.3    502  NHE502      0.0000
      4 C6'        -1.6390   10.7610   -6.8370 C.3    502  NHE502      0.0000
      5 N          -1.2140   10.6310   -4.4690 N.pl3  502  NHE502      0.0000
      6 C1         -1.3330   12.0410   -4.0740 C.3    502  NHE502      0.0000
      7 C2          0.0230   12.7250   -3.9220 C.3    502  NHE502      0.0000
      8 S           0.8410   12.2960   -2.4100 S.3    502  NHE502      0.0000
      9 O1          0.4200   10.9570   -2.0980 O.co2  502  NHE502     -1.0000
     10 O2          2.2900   12.3540   -2.7140 O.co2  502  NHE502      0.0000
     11 O3          0.5190   13.3270   -1.4320 O.co2  502  NHE502      0.0000
     12 C5'        -1.1610   10.4170   -8.2480 C.3    502  NHE502      0.0000
     13 C4'        -0.8760    8.9380   -8.3910 C.3    502  NHE502      0.0000
     14 H           0.2848    7.3837   -7.4216 H      502  NHE502      0.0000
     15 H           1.1144    8.9607   -7.5309 H      502  NHE502      0.0000
     16 H           0.4280    8.5257   -5.1886 H      502  NHE502      0.0000
     17 H          -1.2610    8.2410   -5.6925 H      502  NHE502      0.0000
     18 H           0.3230   10.8763   -5.9238 H      502  NHE502      0.0000
     19 H          -1.8088   11.8600   -6.7886 H      502  NHE502      0.0000
     20 H          -2.6271   10.2770   -6.6593 H      502  NHE502      0.0000
     21 H          -2.1077   10.1593   -4.3510 H      502  NHE502      0.0000
     22 H          -1.8976   12.1110   -3.1175 H      502  NHE502      0.0000
     23 H          -1.9455   12.5953   -4.8164 H      502  NHE502      0.0000
     24 H          -0.0936   13.8291   -3.9005 H      502  NHE502      0.0000
     25 H           0.7197   12.4999   -4.7518 H      502  NHE502      0.0000
     26 H          -0.2430   11.0033   -8.4859 H      502  NHE502      0.0000
     27 H          -1.9324   10.7253   -8.9916 H      502  NHE502      0.0000
     28 H          -1.8221    8.3577   -8.2870 H      502  NHE502      0.0000
     29 H          -0.4806    8.7219   -9.4106 H      502  NHE502      0.0000
@<TRIPOS>BOND
     1     1     2    1
     2     1    13    1
     3     1    14    1
     4     1    15    1
     5     2     3    1
     6     2    16    1
     7     2    17    1
     8     3     4    1
     9     3     5    1
    10     3    18    1
    11     4    12    1
    12     4    19    1
    13     4    20    1
    14     5     6    1
    15     5    21    1
    16     6     7    1
    17     6    22    1
    18     6    23    1
    19     7     8    1
    20     7    24    1
    21     7    25    1
    22     8     9    1
    23     8    10    2
    24     8    11    2
    25    12    13    1
    26    12    26    1
    27    12    27    1
    28    13    28    1
    29    13    29    1

