S89_1_A_307
  -ISIS-            3D

 60 62  0  0  0  0  0  0  0  0  1 V2000
   16.7550    1.1700   23.0170 C   0  0  0  0  0
   15.6770    1.1720   22.4280 O   0  0  0  0  0
   17.1540    2.2940   23.9610 C   0  0  0  0  0
   17.1340    3.6520   23.2900 C   0  0  0  0  0
   17.0380    4.8060   24.2620 C   0  0  0  0  0
   16.7600    4.6000   25.6120 C   0  0  0  0  0
   16.6880    5.7020   26.4640 C   0  0  0  0  0
   16.8720    7.0020   25.9860 C   0  0  0  0  0
   17.1480    7.2030   24.6380 C   0  0  0  0  0
   17.2260    6.1080   23.7740 C   0  0  0  0  0
   17.6450    0.1720   22.8700 N   0  0  0  0  0
   17.3100   -0.9730   22.0310 C   0  0  0  0  0
   16.7340   -1.9350   23.0280 C   0  0  0  0  0
   17.4100   -2.8660   23.4690 O   0  0  0  0  0
   18.6110   -1.5010   21.4550 C   0  0  0  0  0
   18.8590   -0.7340   20.1920 C   0  0  0  0  0
   18.1810   -1.0860   19.0220 C   0  0  0  0  0
   19.7680    0.3370   20.2060 C   0  0  0  0  0
   18.4090   -0.3670   17.8560 C   0  0  0  0  0
   20.0150    1.0550   19.0410 C   0  0  0  0  0
   19.3310    0.6910   17.8720 C   0  0  0  0  0
   15.4800   -1.6410   23.4110 N   0  0  0  0  0
   14.7190   -2.3680   24.4270 C   0  0  0  0  0
   14.4120   -3.8170   24.0690 C   0  0  0  0  0
   13.9420   -4.5450   24.9570 O   0  0  0  0  0
   13.4170   -1.5400   24.5430 C   0  0  0  0  0
   13.4260   -0.1830   25.2440 C   0  0  0  0  0
   12.2190    0.5500   25.2440 C   0  0  0  0  0
   14.5490    0.3330   25.9000 C   0  0  0  0  0
   12.1390    1.7800   25.9010 C   0  0  0  0  0
   14.4830    1.5800   26.5440 C   0  0  0  0  0
   13.2720    2.2940   26.5430 C   0  0  0  0  0
   18.1433    2.1126   24.4383 H   0  0  0  0  0
   16.3938    2.2466   24.7667 H   0  0  0  0  0
   16.2600    3.7181   22.6018 H   0  0  0  0  0
   18.0456    3.7632   22.6590 H   0  0  0  0  0
   16.6024    3.6092   26.0560 H   0  0  0  0  0
   16.4767    5.5463   27.5363 H   0  0  0  0  0
   16.8032    7.8619   26.6737 H   0  0  0  0  0
   17.3009    8.2247   24.2506 H   0  0  0  0  0
   17.4385    6.2741   22.7041 H   0  0  0  0  0
   18.5428    0.2054   23.3694 H   0  0  0  0  0
   16.5723   -0.7525   21.2262 H   0  0  0  0  0
   18.5093   -2.5791   21.1918 H   0  0  0  0  0
   19.4628   -1.4299   22.1671 H   0  0  0  0  0
   17.4664   -1.9266   19.0140 H   0  0  0  0  0
   20.2945    0.6138   21.1350 H   0  0  0  0  0
   17.8772   -0.6276   16.9253 H   0  0  0  0  0
   20.7317    1.8933   19.0351 H   0  0  0  0  0
   19.5192    1.2541   16.9415 H   0  0  0  0  0
   15.0540   -0.7988   22.9832 H   0  0  0  0  0
   15.2531   -2.3647   25.4055 H   0  0  0  0  0
   14.5929   -4.2039   23.0379 H   0  0  0  0  0
   12.6839   -2.1626   25.1090 H   0  0  0  0  0
   12.9676   -1.4196   23.5295 H   0  0  0  0  0
   11.3265    0.1514   24.7321 H   0  0  0  0  0
   15.5004   -0.2225   25.9221 H   0  0  0  0  0
   11.1919    2.3457   25.9092 H   0  0  0  0  0
   15.3677    1.9878   27.0598 H   0  0  0  0  0
   13.2141    3.2697   27.0552 H   0  0  0  0  0
  1  2  2  0  0  0
  1  3  1  0  0  0
  1 11  1  0  0  0
  3  4  1  0  0  0
  3 33  1  0  0  0
  3 34  1  0  0  0
  4  5  1  0  0  0
  4 35  1  0  0  0
  4 36  1  0  0  0
  5  6  2  0  0  0
  5 10  1  0  0  0
  6  7  1  0  0  0
  6 37  1  0  0  0
  7  8  2  0  0  0
  7 38  1  0  0  0
  8  9  1  0  0  0
  8 39  1  0  0  0
  9 10  2  0  0  0
  9 40  1  0  0  0
 10 41  1  0  0  0
 11 12  1  0  0  0
 11 42  1  0  0  0
 12 13  1  0  0  0
 12 15  1  0  0  0
 12 43  1  0  0  0
 13 14  2  0  0  0
 13 22  1  0  0  0
 15 16  1  0  0  0
 15 44  1  0  0  0
 15 45  1  0  0  0
 16 17  2  0  0  0
 16 18  1  0  0  0
 17 19  1  0  0  0
 17 46  1  0  0  0
 18 20  2  0  0  0
 18 47  1  0  0  0
 19 21  2  0  0  0
 19 48  1  0  0  0
 20 21  1  0  0  0
 20 49  1  0  0  0
 21 50  1  0  0  0
 22 23  1  0  0  0
 22 51  1  0  0  0
 23 24  1  0  0  0
 23 26  1  0  0  0
 23 52  1  0  0  0
 24 25  2  0  0  0
 24 53  1  0  0  0
 26 27  1  0  0  0
 26 54  1  0  0  0
 26 55  1  0  0  0
 27 28  2  0  0  0
 27 29  1  0  0  0
 28 30  1  0  0  0
 28 56  1  0  0  0
 29 31  2  0  0  0
 29 57  1  0  0  0
 30 32  2  0  0  0
 30 58  1  0  0  0
 31 32  1  0  0  0
 31 59  1  0  0  0
 32 60  1  0  0  0
M  END
$$$$
