@<TRIPOS>MOLECULE
S89_2_A_307
 60 62 0 0 0
SMALL
NO_CHARGES

@<TRIPOS>ATOM
      1 CAZ       -30.2680    1.1700   28.7480 C.2    307  S89307      0.0000
      2 OAB       -29.1900    1.1720   29.3370 O.2    307  S89307      0.0000
      3 CAE       -30.6670    2.2940   27.8040 C.3    307  S89307      0.0000
      4 CAF       -30.6470    3.6520   28.4750 C.3    307  S89307      0.0000
      5 CBB       -30.5510    4.8060   27.5030 C.ar   307  S89307      0.0000
      6 CAP       -30.2730    4.6000   26.1530 C.ar   307  S89307      0.0000
      7 CAJ       -30.2010    5.7020   25.3010 C.ar   307  S89307      0.0000
      8 CAG       -30.3850    7.0020   25.7790 C.ar   307  S89307      0.0000
      9 CAK       -30.6610    7.2030   27.1270 C.ar   307  S89307      0.0000
     10 CAQ       -30.7390    6.1080   27.9910 C.ar   307  S89307      0.0000
     11 NAY       -31.1580    0.1720   28.8950 N.am   307  S89307      0.0000
     12 CBF       -30.8230   -0.9730   29.7340 C.3    307  S89307      0.0000
     13 CBA       -30.2470   -1.9350   28.7370 C.2    307  S89307      0.0000
     14 OAC       -30.9230   -2.8660   28.2960 O.2    307  S89307      0.0000
     15 CAW       -32.1240   -1.5010   30.3100 C.3    307  S89307      0.0000
     16 CBD       -32.3720   -0.7340   31.5730 C.ar   307  S89307      0.0000
     17 CAU       -31.6940   -1.0860   32.7430 C.ar   307  S89307      0.0000
     18 CAT       -33.2810    0.3370   31.5590 C.ar   307  S89307      0.0000
     19 CAO       -31.9220   -0.3670   33.9090 C.ar   307  S89307      0.0000
     20 CAN       -33.5280    1.0550   32.7240 C.ar   307  S89307      0.0000
     21 CAI       -32.8440    0.6910   33.8930 C.ar   307  S89307      0.0000
     22 N         -28.9930   -1.6410   28.3540 N.am   307  S89307      0.0000
     23 CA        -28.2320   -2.3680   27.3380 C.3    307  S89307      0.0000
     24 C         -27.9250   -3.8170   27.6960 C.2    307  S89307      0.0000
     25 O         -27.4550   -4.5450   26.8080 O.2    307  S89307      0.0000
     26 CB        -26.9300   -1.5400   27.2220 C.3    307  S89307      0.0000
     27 CG        -26.9390   -0.1830   26.5210 C.ar   307  S89307      0.0000
     28 CD1       -25.7320    0.5500   26.5210 C.ar   307  S89307      0.0000
     29 CD2       -28.0620    0.3330   25.8650 C.ar   307  S89307      0.0000
     30 CE1       -25.6520    1.7800   25.8640 C.ar   307  S89307      0.0000
     31 CE2       -27.9960    1.5800   25.2210 C.ar   307  S89307      0.0000
     32 CZ        -26.7850    2.2940   25.2220 C.ar   307  S89307      0.0000
     33 H         -31.6563    2.1126   27.3267 H      307  S89307      0.0000
     34 H         -29.9068    2.2466   26.9983 H      307  S89307      0.0000
     35 H         -29.7730    3.7181   29.1632 H      307  S89307      0.0000
     36 H         -31.5586    3.7632   29.1060 H      307  S89307      0.0000
     37 H         -30.1154    3.6092   25.7090 H      307  S89307      0.0000
     38 H         -29.9897    5.5463   24.2287 H      307  S89307      0.0000
     39 H         -30.3162    7.8619   25.0913 H      307  S89307      0.0000
     40 H         -30.8139    8.2247   27.5144 H      307  S89307      0.0000
     41 H         -30.9515    6.2741   29.0609 H      307  S89307      0.0000
     42 H         -32.0559    0.2054   28.3956 H      307  S89307      0.0000
     43 H         -30.0853   -0.7525   30.5388 H      307  S89307      0.0000
     44 H         -32.0223   -2.5791   30.5732 H      307  S89307      0.0000
     45 H         -32.9758   -1.4299   29.5979 H      307  S89307      0.0000
     46 H         -30.9794   -1.9266   32.7510 H      307  S89307      0.0000
     47 H         -33.8075    0.6138   30.6300 H      307  S89307      0.0000
     48 H         -31.3902   -0.6276   34.8397 H      307  S89307      0.0000
     49 H         -34.2447    1.8933   32.7299 H      307  S89307      0.0000
     50 H         -33.0322    1.2541   34.8235 H      307  S89307      0.0000
     51 H         -28.5670   -0.7988   28.7818 H      307  S89307      0.0000
     52 H         -28.7661   -2.3647   26.3595 H      307  S89307      0.0000
     53 H         -28.1059   -4.2039   28.7271 H      307  S89307      0.0000
     54 H         -26.1969   -2.1626   26.6560 H      307  S89307      0.0000
     55 H         -26.4806   -1.4197   28.2355 H      307  S89307      0.0000
     56 H         -24.8395    0.1514   27.0329 H      307  S89307      0.0000
     57 H         -29.0134   -0.2225   25.8429 H      307  S89307      0.0000
     58 H         -24.7049    2.3457   25.8558 H      307  S89307      0.0000
     59 H         -28.8807    1.9878   24.7052 H      307  S89307      0.0000
     60 H         -26.7271    3.2697   24.7098 H      307  S89307      0.0000
@<TRIPOS>BOND
     1     1     2    2
     2     1     3    1
     3     1    11    1
     4     3     4    1
     5     3    33    1
     6     3    34    1
     7     4     5    1
     8     4    35    1
     9     4    36    1
    10     5     6   ar
    11     5    10   ar
    12     6     7   ar
    13     6    37    1
    14     7     8   ar
    15     7    38    1
    16     8     9   ar
    17     8    39    1
    18     9    10   ar
    19     9    40    1
    20    10    41    1
    21    11    12    1
    22    11    42    1
    23    12    13    1
    24    12    15    1
    25    12    43    1
    26    13    14    2
    27    13    22    1
    28    15    16    1
    29    15    44    1
    30    15    45    1
    31    16    17   ar
    32    16    18   ar
    33    17    19   ar
    34    17    46    1
    35    18    20   ar
    36    18    47    1
    37    19    21   ar
    38    19    48    1
    39    20    21   ar
    40    20    49    1
    41    21    50    1
    42    22    23    1
    43    22    51    1
    44    23    24    1
    45    23    26    1
    46    23    52    1
    47    24    25    2
    48    24    53    1
    49    26    27    1
    50    26    54    1
    51    26    55    1
    52    27    28   ar
    53    27    29   ar
    54    28    30   ar
    55    28    56    1
    56    29    31   ar
    57    29    57    1
    58    30    32   ar
    59    30    58    1
    60    31    32   ar
    61    31    59    1
    62    32    60    1

