@<TRIPOS>MOLECULE
TLD_2_A_902
 15 15 0 0 0
SMALL
NO_CHARGES

@<TRIPOS>ATOM
      1 C1        -32.4220   -6.0130   25.3730 C.ar   902  TLD902      0.0000
      2 C2        -31.6950   -5.4730   26.5590 C.ar   902  TLD902      0.0000
      3 C3        -31.8460   -4.1350   26.9190 C.ar   902  TLD902      0.0000
      4 C4        -32.7310   -3.2550   26.1100 C.ar   902  TLD902      0.0000
      5 C5        -33.3860   -3.7650   25.0250 C.ar   902  TLD902      0.0000
      6 C6        -33.2220   -5.2040   24.6390 C.ar   902  TLD902      0.0000
      7 C13       -34.2740   -2.8750   24.2030 C.3    902  TLD902      0.0000
      8 S15       -30.6390   -6.5950   27.4870 S.3    902  TLD902      0.0000
      9 S17       -30.9850   -3.4260   28.3300 S.3    902  TLD902      0.0000
     10 H         -32.3000   -7.0739   25.0969 H      902  TLD902      0.0000
     11 H         -32.8488   -2.1954   26.3921 H      902  TLD902      0.0000
     12 H         -33.7565   -5.5975   23.7583 H      902  TLD902      0.0000
     13 H         -34.7379   -3.4202   23.3522 H      902  TLD902      0.0000
     14 H         -33.7019   -2.0216   23.7759 H      902  TLD902      0.0000
     15 H         -35.1015   -2.4562   24.8177 H      902  TLD902      0.0000
@<TRIPOS>BOND
     1     1     2   ar
     2     1     6   ar
     3     1    10    1
     4     2     3   ar
     5     2     8    1
     6     3     4   ar
     7     3     9    1
     8     4     5   ar
     9     4    11    1
    10     5     6   ar
    11     5     7    1
    12     6    12    1
    13     7    13    1
    14     7    14    1
    15     7    15    1

