TLD_2_A_902
  -ISIS-            3D

 15 15  0  0  0  0  0  0  0  0  1 V2000
  -32.4220   -6.0130   25.3730 C   0  0  0  0  0
  -31.6950   -5.4730   26.5590 C   0  0  0  0  0
  -31.8460   -4.1350   26.9190 C   0  0  0  0  0
  -32.7310   -3.2550   26.1100 C   0  0  0  0  0
  -33.3860   -3.7650   25.0250 C   0  0  0  0  0
  -33.2220   -5.2040   24.6390 C   0  0  0  0  0
  -34.2740   -2.8750   24.2030 C   0  0  0  0  0
  -30.6390   -6.5950   27.4870 S   0  0  0  0  0
  -30.9850   -3.4260   28.3300 S   0  0  0  0  0
  -32.3000   -7.0739   25.0969 H   0  0  0  0  0
  -32.8488   -2.1954   26.3921 H   0  0  0  0  0
  -33.7565   -5.5975   23.7583 H   0  0  0  0  0
  -34.7379   -3.4202   23.3522 H   0  0  0  0  0
  -33.7019   -2.0216   23.7759 H   0  0  0  0  0
  -35.1015   -2.4562   24.8177 H   0  0  0  0  0
  1  2  1  0  0  0
  1  6  1  0  0  0
  1 10  1  0  0  0
  2  3  1  0  0  0
  2  8  1  0  0  0
  3  4  1  0  0  0
  3  9  1  0  0  0
  4  5  1  0  0  0
  4 11  1  0  0  0
  5  6  1  0  0  0
  5  7  1  0  0  0
  6 12  1  0  0  0
  7 13  1  0  0  0
  7 14  1  0  0  0
  7 15  1  0  0  0
M  END
$$$$
