@<TRIPOS>MOLECULE
DMS_2_A_402
 10 9 0 0 0
SMALL
NO_CHARGES

@<TRIPOS>ATOM
      1 S          -6.0710   -1.0520    6.2900 S.o    402  DMS402      0.0000
      2 O          -7.0110   -0.9450    7.4500 O.2    402  DMS402      0.0000
      3 C1         -7.0850   -0.9200    4.8220 C.3    402  DMS402      0.0000
      4 C2         -5.6610   -2.7590    6.1340 C.3    402  DMS402      0.0000
      5 H          -6.4725   -1.1325    3.9220 H      402  DMS402      0.0000
      6 H          -7.4865    0.1114    4.7471 H      402  DMS402      0.0000
      7 H          -7.9317   -1.6351    4.8720 H      402  DMS402      0.0000
      8 H          -5.0834   -2.9250    5.2017 H      402  DMS402      0.0000
      9 H          -6.5805   -3.3793    6.1137 H      402  DMS402      0.0000
     10 H          -5.0383   -3.0675    6.9986 H      402  DMS402      0.0000
@<TRIPOS>BOND
     1     1     2    2
     2     1     3    1
     3     1     4    1
     4     3     5    1
     5     3     6    1
     6     3     7    1
     7     4     8    1
     8     4     9    1
     9     4    10    1

