DMS_1_A_401
  -ISIS-            3D

 10  9  0  0  0  0  0  0  0  0  1 V2000
    6.9640  -28.0840   21.4140 S   0  0  0  0  0
    7.7420  -27.0870   22.1990 O   0  0  0  0  0
    5.6900  -28.6830   22.4980 C   0  0  0  0  0
    5.9420  -27.1610   20.3120 C   0  0  0  0  0
    4.9882  -29.3295   21.9324 H   0  0  0  0  0
    5.1324  -27.8346   22.9455 H   0  0  0  0  0
    6.1513  -29.2806   23.3105 H   0  0  0  0  0
    5.2347  -27.8411   19.7948 H   0  0  0  0  0
    6.5777  -26.6624   19.5520 H   0  0  0  0  0
    5.3713  -26.3883   20.8672 H   0  0  0  0  0
  1  2  2  0  0  0
  1  3  1  0  0  0
  1  4  1  0  0  0
  3  5  1  0  0  0
  3  6  1  0  0  0
  3  7  1  0  0  0
  4  8  1  0  0  0
  4  9  1  0  0  0
  4 10  1  0  0  0
M  END
$$$$
