@<TRIPOS>MOLECULE
DMS_1_A_403
 10 9 0 0 0
SMALL
NO_CHARGES

@<TRIPOS>ATOM
      1 S           6.1250   -0.9260   -6.2860 S.o    403  DMS403      0.0000
      2 O           7.0500   -0.8390   -7.4440 O.2    403  DMS403      0.0000
      3 C1          7.1500   -0.8910   -4.8290 C.3    403  DMS403      0.0000
      4 C2          5.6580   -2.6320   -6.1750 C.3    403  DMS403      0.0000
      5 H           6.5360   -1.1085   -3.9312 H      403  DMS403      0.0000
      6 H           7.5969    0.1184   -4.7205 H      403  DMS403      0.0000
      7 H           7.9651   -1.6392   -4.9105 H      403  DMS403      0.0000
      8 H           5.0850   -2.8063   -5.2415 H      403  DMS403      0.0000
      9 H           6.5568   -3.2825   -6.1838 H      403  DMS403      0.0000
     10 H           5.0163   -2.8935   -7.0412 H      403  DMS403      0.0000
@<TRIPOS>BOND
     1     1     2    2
     2     1     3    1
     3     1     4    1
     4     3     5    1
     5     3     6    1
     6     3     7    1
     7     4     8    1
     8     4     9    1
     9     4    10    1

