DMS_2_A_403
  -ISIS-            3D

 10  9  0  0  0  0  0  0  0  0  1 V2000
   -6.1250   -0.9260    6.2860 S   0  0  0  0  0
   -7.0500   -0.8390    7.4440 O   0  0  0  0  0
   -7.1500   -0.8910    4.8290 C   0  0  0  0  0
   -5.6580   -2.6320    6.1750 C   0  0  0  0  0
   -6.5360   -1.1085    3.9312 H   0  0  0  0  0
   -7.5969    0.1184    4.7205 H   0  0  0  0  0
   -7.9651   -1.6392    4.9105 H   0  0  0  0  0
   -5.0850   -2.8063    5.2415 H   0  0  0  0  0
   -6.5568   -3.2825    6.1838 H   0  0  0  0  0
   -5.0163   -2.8935    7.0412 H   0  0  0  0  0
  1  2  2  0  0  0
  1  3  1  0  0  0
  1  4  1  0  0  0
  3  5  1  0  0  0
  3  6  1  0  0  0
  3  7  1  0  0  0
  4  8  1  0  0  0
  4  9  1  0  0  0
  4 10  1  0  0  0
M  END
$$$$
