@<TRIPOS>MOLECULE
DMS_1_A_405
 10 9 0 0 0
SMALL
NO_CHARGES

@<TRIPOS>ATOM
      1 S           2.0550  -18.9200    8.5320 S.o    405  DMS405      0.0000
      2 O           1.2640  -18.0350    9.4580 O.2    405  DMS405      0.0000
      3 C1          3.7610  -18.7370    8.9870 C.3    405  DMS405      0.0000
      4 C2          2.1170  -18.0700    7.0040 C.3    405  DMS405      0.0000
      5 H           4.4060  -19.2532    8.2468 H      405  DMS405      0.0000
      6 H           3.9247  -19.1944    9.9842 H      405  DMS405      0.0000
      7 H           4.0367  -17.6635    9.0332 H      405  DMS405      0.0000
      8 H           2.8002  -18.5955    6.3058 H      405  DMS405      0.0000
      9 H           2.4708  -17.0288    7.1505 H      405  DMS405      0.0000
     10 H           1.1027  -18.0442    6.5555 H      405  DMS405      0.0000
@<TRIPOS>BOND
     1     1     2    2
     2     1     3    1
     3     1     4    1
     4     3     5    1
     5     3     6    1
     6     3     7    1
     7     4     8    1
     8     4     9    1
     9     4    10    1

