@<TRIPOS>MOLECULE
DMS_1_A_402
 10 9 0 0 0
SMALL
NO_CHARGES

@<TRIPOS>ATOM
      1 S           7.4810  -21.4710   29.4410 S.o    402  DMS402      0.0000
      2 O           8.4890  -20.7140   28.6400 O.2    402  DMS402      0.0000
      3 C1          5.9280  -20.6390   29.2190 C.3    402  DMS402      0.0000
      4 C2          7.0970  -22.9210   28.5030 C.3    402  DMS402      0.0000
      5 H           5.1117  -21.2365   29.6740 H      402  DMS402      0.0000
      6 H           5.7195  -20.4886   28.1398 H      402  DMS402      0.0000
      7 H           5.9681  -19.6498   29.7193 H      402  DMS402      0.0000
      8 H           6.2505  -23.4618   28.9735 H      402  DMS402      0.0000
      9 H           7.9813  -23.5904   28.4845 H      402  DMS402      0.0000
     10 H           6.8290  -22.6501   27.4611 H      402  DMS402      0.0000
@<TRIPOS>BOND
     1     1     2    2
     2     1     3    1
     3     1     4    1
     4     3     5    1
     5     3     6    1
     6     3     7    1
     7     4     8    1
     8     4     9    1
     9     4    10    1

