DMS_2_A_404
  -ISIS-            3D

 10  9  0  0  0  0  0  0  0  0  1 V2000
  -21.2490   14.5540   -7.9680 S   0  0  0  0  0
  -22.6500   14.9580   -7.7940 O   0  0  0  0  0
  -21.3100   13.1930   -9.0930 C   0  0  0  0  0
  -20.8750   13.6510   -6.5020 C   0  0  0  0  0
  -20.3142   12.7080   -9.1515 H   0  0  0  0  0
  -21.5865   13.5619  -10.1020 H   0  0  0  0  0
  -22.0632   12.4480   -8.7631 H   0  0  0  0  0
  -19.8884   13.1550   -6.6064 H   0  0  0  0  0
  -21.6527   12.8840   -6.3067 H   0  0  0  0  0
  -20.8331   14.3484   -5.6403 H   0  0  0  0  0
  1  2  2  0  0  0
  1  3  1  0  0  0
  1  4  1  0  0  0
  3  5  1  0  0  0
  3  6  1  0  0  0
  3  7  1  0  0  0
  4  8  1  0  0  0
  4  9  1  0  0  0
  4 10  1  0  0  0
M  END
$$$$
