@<TRIPOS>MOLECULE
DMS_2_A_402
 10 9 0 0 0
SMALL
NO_CHARGES

@<TRIPOS>ATOM
      1 S          -6.1250   -0.8780    6.3630 S.o    402  DMS402      0.0000
      2 O          -6.9600   -0.6030    7.5220 O.2    402  DMS402      0.0000
      3 C1         -7.2640   -0.9120    5.0120 C.3    402  DMS402      0.0000
      4 C2         -5.7480   -2.6000    6.4290 C.3    402  DMS402      0.0000
      5 H          -6.7491   -1.2637    4.0947 H      402  DMS402      0.0000
      6 H          -7.6531    0.1112    4.8321 H      402  DMS402      0.0000
      7 H          -8.1153   -1.5872    5.2374 H      402  DMS402      0.0000
      8 H          -5.2545   -2.9138    5.4865 H      402  DMS402      0.0000
      9 H          -6.6728   -3.1952    6.5760 H      402  DMS402      0.0000
     10 H          -5.0571   -2.7933    7.2750 H      402  DMS402      0.0000
@<TRIPOS>BOND
     1     1     2    2
     2     1     3    1
     3     1     4    1
     4     3     5    1
     5     3     6    1
     6     3     7    1
     7     4     8    1
     8     4     9    1
     9     4    10    1

