DMS_1_A_402
  -ISIS-            3D

 10  9  0  0  0  0  0  0  0  0  1 V2000
    6.1250   -0.8780   -6.3630 S   0  0  0  0  0
    6.9600   -0.6030   -7.5220 O   0  0  0  0  0
    7.2640   -0.9120   -5.0120 C   0  0  0  0  0
    5.7480   -2.6000   -6.4290 C   0  0  0  0  0
    6.7491   -1.2637   -4.0947 H   0  0  0  0  0
    7.6531    0.1112   -4.8321 H   0  0  0  0  0
    8.1153   -1.5872   -5.2374 H   0  0  0  0  0
    5.2545   -2.9138   -5.4865 H   0  0  0  0  0
    6.6728   -3.1952   -6.5760 H   0  0  0  0  0
    5.0571   -2.7933   -7.2750 H   0  0  0  0  0
  1  2  2  0  0  0
  1  3  1  0  0  0
  1  4  1  0  0  0
  3  5  1  0  0  0
  3  6  1  0  0  0
  3  7  1  0  0  0
  4  8  1  0  0  0
  4  9  1  0  0  0
  4 10  1  0  0  0
M  END
$$$$
