@<TRIPOS>MOLECULE
ZU3_1_A_501
 93 94 0 0 0
SMALL
NO_CHARGES

@<TRIPOS>ATOM
      1 C17        18.6600    3.4790   20.0370 C.2    501  ZU3501      0.0000
      2 O19        19.7990    2.9160   20.0120 O.2    501  ZU3501      0.0000
      3 O15        18.2660    4.3990   19.0560 O.3    501  ZU3501      0.0000
      4 C13        19.3390    4.8390   18.1670 C.3    501  ZU3501      0.0000
      5 C4         19.9970    6.0550   18.7750 C.ar   501  ZU3501      0.0000
      6 C6         19.3500    7.3900   18.6490 C.ar   501  ZU3501      0.0000
      7 C8         19.9390    8.4700   19.1960 C.ar   501  ZU3501      0.0000
      8 C10        21.2410    8.3390   19.9340 C.ar   501  ZU3501      0.0000
      9 C1         21.8400    7.1220   20.0550 C.ar   501  ZU3501      0.0000
     10 C2         21.1940    5.9250   19.4490 C.ar   501  ZU3501      0.0000
     11 N21        17.7240    3.1830   21.0410 N.am   501  ZU3501      0.0000
     12 C23        18.0030    2.2150   22.0920 C.3    501  ZU3501      0.0000
     13 C25        17.6460    2.8140   23.4540 C.3    501  ZU3501      0.0000
     14 N27        18.2720    4.1420   23.6240 N.am   501  ZU3501      0.0000
     15 C29        19.6470    4.2130   24.0990 C.2    501  ZU3501      0.0000
     16 C31        17.2620    0.9280   21.7820 C.2    501  ZU3501      0.0000
     17 O35        15.9720    0.9030   21.7850 O.2    501  ZU3501      0.0000
     18 O43        20.2660    3.1440   24.3540 O.2    501  ZU3501      0.0000
     19 C45        20.3550    5.5430   24.3040 C.3    501  ZU3501      0.0000
     20 C76        20.8240    5.6600   25.7600 C.3    501  ZU3501      0.0000
     21 C78        19.4070    6.7330   23.9340 C.3    501  ZU3501      0.0000
     22 C80        21.5430    5.6270   23.3500 C.3    501  ZU3501      0.0000
     23 N33        18.0140   -0.2830   21.5650 N.am   501  ZU3501      0.0000
     24 C37        17.3210   -1.5500   21.3580 C.3    501  ZU3501      0.0000
     25 C39        16.5150   -1.8760   22.5960 C.2    501  ZU3501      0.0000
     26 O47        16.9790   -1.5390   23.7230 O.2    501  ZU3501      0.0000
     27 C41        18.3680   -2.6430   20.9160 C.3    501  ZU3501      0.0000
     28 C51        19.1760   -2.4540   19.5860 C.3    501  ZU3501      0.0000
     29 C53        20.0980   -3.6290   19.1910 C.3    501  ZU3501      0.0000
     30 C55        18.2010   -2.2060   18.4160 C.3    501  ZU3501      0.0000
     31 N49        15.2530   -2.5410   22.5430 N.am   501  ZU3501      0.0000
     32 C57        14.5130   -2.8160   23.7590 C.3    501  ZU3501      0.0000
     33 C59        13.2400   -1.8030   23.8120 C.3    501  ZU3501      0.0000
     34 C61        13.5660   -0.3700   24.2540 C.3    501  ZU3501      0.0000
     35 C63        14.1310   -4.2750   23.6840 C.3    501  ZU3501      0.0000
     36 C65        12.3400    0.4760   24.3300 C.2    501  ZU3501      0.0000
     37 O66        11.4050    0.4110   23.5110 O.2    501  ZU3501      0.0000
     38 N69        12.3810    1.3650   25.4460 N.am   501  ZU3501      0.0000
     39 C71        13.6310    1.2240   26.2090 C.3    501  ZU3501      0.0000
     40 C73        14.1780   -0.1600   25.7240 C.3    501  ZU3501      0.0000
     41 C82        15.4240   -5.1710   23.7600 C.3    501  ZU3501      0.0000
     42 C84        15.2030   -6.3770   24.6720 C.2    501  ZU3501      0.0000
     43 C86        16.3600   -7.3390   24.9940 C.3    501  ZU3501      0.0000
     44 O88        14.1000   -6.6180   25.1140 O.2    501  ZU3501      0.0000
     45 H          18.9034    5.1190   17.1855 H      501  ZU3501      0.0000
     46 H          20.0763    4.0411   17.9484 H      501  ZU3501      0.0000
     47 H          18.3922    7.4848   18.1102 H      501  ZU3501      0.0000
     48 H          19.4729    9.4664   19.1108 H      501  ZU3501      0.0000
     49 H          21.7029    9.2387   20.3744 H      501  ZU3501      0.0000
     50 H          22.7963    7.0108   20.5931 H      501  ZU3501      0.0000
     51 H          21.6867    4.9439   19.5533 H      501  ZU3501      0.0000
     52 H          16.8061    3.6447   21.0019 H      501  ZU3501      0.0000
     53 H          19.0928    1.9792   22.1179 H      501  ZU3501      0.0000
     54 H          17.9464    2.1116   24.2646 H      501  ZU3501      0.0000
     55 H          16.5383    2.9096   23.5326 H      501  ZU3501      0.0000
     56 H          17.7400    4.9915   23.4018 H      501  ZU3501      0.0000
     57 H          21.3334    6.6308   25.9512 H      501  ZU3501      0.0000
     58 H          21.5427    4.8557   26.0338 H      501  ZU3501      0.0000
     59 H          19.9694    5.5930   26.4699 H      501  ZU3501      0.0000
     60 H          19.9184    7.7120   24.0719 H      501  ZU3501      0.0000
     61 H          18.5009    6.7579   24.5797 H      501  ZU3501      0.0000
     62 H          19.0749    6.6956   22.8721 H      501  ZU3501      0.0000
     63 H          22.0594    6.6110   23.4095 H      501  ZU3501      0.0000
     64 H          21.2278    5.4805   22.2937 H      501  ZU3501      0.0000
     65 H          22.3068    4.8477   23.5686 H      501  ZU3501      0.0000
     66 H          19.0413   -0.2412   21.5751 H      501  ZU3501      0.0000
     67 H          16.5883   -1.4331   20.5251 H      501  ZU3501      0.0000
     68 H          17.8212   -3.6126   20.8441 H      501  ZU3501      0.0000
     69 H          19.0976   -2.7770   21.7487 H      501  ZU3501      0.0000
     70 H          19.8165   -1.5454   19.6992 H      501  ZU3501      0.0000
     71 H          20.6694   -3.4144   18.2603 H      501  ZU3501      0.0000
     72 H          19.5214   -4.5658   19.0225 H      501  ZU3501      0.0000
     73 H          20.8432   -3.8405   19.9902 H      501  ZU3501      0.0000
     74 H          18.7407   -2.1030   17.4481 H      501  ZU3501      0.0000
     75 H          17.6190   -1.2678   18.5492 H      501  ZU3501      0.0000
     76 H          17.4723   -3.0391   18.2994 H      501  ZU3501      0.0000
     77 H          14.8633   -2.8046   21.6276 H      501  ZU3501      0.0000
     78 H          15.1188   -2.6503   24.6794 H      501  ZU3501      0.0000
     79 H          12.4948   -2.2269   24.5246 H      501  ZU3501      0.0000
     80 H          12.7496   -1.7952   22.8114 H      501  ZU3501      0.0000
     81 H          14.2595    0.0951   23.5159 H      501  ZU3501      0.0000
     82 H          13.5541   -4.5014   22.7586 H      501  ZU3501      0.0000
     83 H          13.4531   -4.4901   24.5400 H      501  ZU3501      0.0000
     84 H          11.6168    2.0181   25.6592 H      501  ZU3501      0.0000
     85 H          13.4627    1.2231   27.3090 H      501  ZU3501      0.0000
     86 H          14.3510    2.0363   25.9604 H      501  ZU3501      0.0000
     87 H          15.2903   -0.1840   25.7165 H      501  ZU3501      0.0000
     88 H          13.8122   -0.9685   26.3978 H      501  ZU3501      0.0000
     89 H          16.2824   -4.5874   24.1624 H      501  ZU3501      0.0000
     90 H          15.7115   -5.5118   22.7396 H      501  ZU3501      0.0000
     91 H          16.0278   -8.1643   25.6618 H      501  ZU3501      0.0000
     92 H          17.1869   -6.7959   25.5023 H      501  ZU3501      0.0000
     93 H          16.7611   -7.7907   24.0601 H      501  ZU3501      0.0000
@<TRIPOS>BOND
     1     1     2    2
     2     1     3    1
     3     1    11    1
     4     3     4    1
     5     4     5    1
     6     4    45    1
     7     4    46    1
     8     5     6   ar
     9     5    10   ar
    10     6     7   ar
    11     6    47    1
    12     7     8   ar
    13     7    48    1
    14     8     9   ar
    15     8    49    1
    16     9    10   ar
    17     9    50    1
    18    10    51    1
    19    11    12    1
    20    11    52    1
    21    12    13    1
    22    12    16    1
    23    12    53    1
    24    13    14    1
    25    13    54    1
    26    13    55    1
    27    14    15    1
    28    14    56    1
    29    15    18    2
    30    15    19    1
    31    16    17    2
    32    16    23    1
    33    19    20    1
    34    19    21    1
    35    19    22    1
    36    20    57    1
    37    20    58    1
    38    20    59    1
    39    21    60    1
    40    21    61    1
    41    21    62    1
    42    22    63    1
    43    22    64    1
    44    22    65    1
    45    23    24    1
    46    23    66    1
    47    24    25    1
    48    24    27    1
    49    24    67    1
    50    25    26    2
    51    25    31    1
    52    27    28    1
    53    27    68    1
    54    27    69    1
    55    28    29    1
    56    28    30    1
    57    28    70    1
    58    29    71    1
    59    29    72    1
    60    29    73    1
    61    30    74    1
    62    30    75    1
    63    30    76    1
    64    31    32    1
    65    31    77    1
    66    32    33    1
    67    32    35    1
    68    32    78    1
    69    33    34    1
    70    33    79    1
    71    33    80    1
    72    34    36    1
    73    34    40    1
    74    34    81    1
    75    35    41    1
    76    35    82    1
    77    35    83    1
    78    36    37    2
    79    36    38    1
    80    38    39    1
    81    38    84    1
    82    39    40    1
    83    39    85    1
    84    39    86    1
    85    40    87    1
    86    40    88    1
    87    41    42    1
    88    41    89    1
    89    41    90    1
    90    42    43    1
    91    42    44    2
    92    43    91    1
    93    43    92    1
    94    43    93    1

