@<TRIPOS>MOLECULE
FUL_1_I_4
 22 22 0 0 0
SMALL
NO_CHARGES

@<TRIPOS>ATOM
      1 C1          7.4780    0.0900   26.8870 C.3      4  FUL4        0.0000
      2 C2          6.7250    1.0120   25.9340 C.3      4  FUL4        0.0000
      3 O2          6.2920    2.1690   26.6530 O.3      4  FUL4        0.0000
      4 C3          7.5970    1.4450   24.7640 C.3      4  FUL4        0.0000
      5 O3          6.7840    2.0650   23.7660 O.3      4  FUL4        0.0000
      6 C4          8.2830    0.2380   24.1550 C.3      4  FUL4        0.0000
      7 O4          7.2760   -0.6370   23.6420 O.3      4  FUL4        0.0000
      8 C5          9.0490   -0.5020   25.2330 C.3      4  FUL4        0.0000
      9 C6          9.8220   -1.6770   24.6530 C.3      4  FUL4        0.0000
     10 O5          8.0970   -0.9780   26.1760 O.3      4  FUL4        0.0000
     11 H           6.7792   -0.3388   27.6346 H        4  FUL4        0.0000
     12 H           8.2464    0.6513   27.4585 H        4  FUL4        0.0000
     13 H           5.8338    0.4659   25.5529 H        4  FUL4        0.0000
     14 H           5.7902    2.6974   26.0447 H        4  FUL4        0.0000
     15 H           8.3661    2.1628   25.1259 H        4  FUL4        0.0000
     16 H           7.3178    2.6788   23.2788 H        4  FUL4        0.0000
     17 H           8.9673    0.5542   23.3393 H        4  FUL4        0.0000
     18 H           6.6692   -0.1009   23.1432 H        4  FUL4        0.0000
     19 H           9.7767    0.1798   25.7264 H        4  FUL4        0.0000
     20 H          10.3865   -2.2186   25.4435 H        4  FUL4        0.0000
     21 H          10.5641   -1.3470   23.8935 H        4  FUL4        0.0000
     22 H           9.1552   -2.4198   24.1637 H        4  FUL4        0.0000
@<TRIPOS>BOND
     1     1     2    1
     2     1    10    1
     3     1    11    1
     4     1    12    1
     5     2     3    1
     6     2     4    1
     7     2    13    1
     8     3    14    1
     9     4     5    1
    10     4     6    1
    11     4    15    1
    12     5    16    1
    13     6     7    1
    14     6     8    1
    15     6    17    1
    16     7    18    1
    17     8     9    1
    18     8    10    1
    19     8    19    1
    20     9    20    1
    21     9    21    1
    22     9    22    1

