@<TRIPOS>MOLECULE
DMS_1_A_506
 10 9 0 0 0
SMALL
NO_CHARGES

@<TRIPOS>ATOM
      1 S         -24.2950   -3.4320    9.2980 S.o    506  DMS506      0.0000
      2 O         -23.3020   -3.9550   10.2880 O.2    506  DMS506      0.0000
      3 C1        -23.7150   -1.8640    8.5870 C.3    506  DMS506      0.0000
      4 C2        -25.7980   -2.8800   10.1500 C.3    506  DMS506      0.0000
      5 H         -24.4815   -1.4668    7.8907 H      506  DMS506      0.0000
      6 H         -22.7720   -2.0418    8.0307 H      506  DMS506      0.0000
      7 H         -23.5313   -1.1297    9.3979 H      506  DMS506      0.0000
      8 H         -26.5079   -2.4545    9.4116 H      506  DMS506      0.0000
      9 H         -25.5399   -2.1099   10.9055 H      506  DMS506      0.0000
     10 H         -26.2713   -3.7468   10.6550 H      506  DMS506      0.0000
@<TRIPOS>BOND
     1     1     2    2
     2     1     3    1
     3     1     4    1
     4     3     5    1
     5     3     6    1
     6     3     7    1
     7     4     8    1
     8     4     9    1
     9     4    10    1

