DMS_1_A_504
  -ISIS-            3D

 10  9  0  0  0  0  0  0  0  0  1 V2000
   -0.9070   -2.6730   17.1380 S   0  0  0  0  0
   -1.0820   -4.1450   17.3380 O   0  0  0  0  0
   -2.0720   -2.0980   15.8770 C   0  0  0  0  0
    0.6650   -2.3330   16.2970 C   0  0  0  0  0
   -1.9091   -1.0176   15.6859 H   0  0  0  0  0
   -3.1087   -2.2519   16.2401 H   0  0  0  0  0
   -1.9232   -2.6693   14.9378 H   0  0  0  0  0
    0.7517   -1.2453   16.0979 H   0  0  0  0  0
    0.7086   -2.8924   15.3400 H   0  0  0  0  0
    1.5037   -2.6532   16.9483 H   0  0  0  0  0
  1  2  2  0  0  0
  1  3  1  0  0  0
  1  4  1  0  0  0
  3  5  1  0  0  0
  3  6  1  0  0  0
  3  7  1  0  0  0
  4  8  1  0  0  0
  4  9  1  0  0  0
  4 10  1  0  0  0
M  END
$$$$
