@<TRIPOS>MOLECULE
DMS_1_A_504
 10 9 0 0 0
SMALL
NO_CHARGES

@<TRIPOS>ATOM
      1 S          -0.9070   -2.6730   17.1380 S.o    504  DMS504      0.0000
      2 O          -1.0820   -4.1450   17.3380 O.2    504  DMS504      0.0000
      3 C1         -2.0720   -2.0980   15.8770 C.3    504  DMS504      0.0000
      4 C2          0.6650   -2.3330   16.2970 C.3    504  DMS504      0.0000
      5 H          -1.9091   -1.0176   15.6859 H      504  DMS504      0.0000
      6 H          -3.1087   -2.2519   16.2401 H      504  DMS504      0.0000
      7 H          -1.9232   -2.6693   14.9378 H      504  DMS504      0.0000
      8 H           0.7517   -1.2453   16.0979 H      504  DMS504      0.0000
      9 H           0.7086   -2.8924   15.3400 H      504  DMS504      0.0000
     10 H           1.5037   -2.6532   16.9483 H      504  DMS504      0.0000
@<TRIPOS>BOND
     1     1     2    2
     2     1     3    1
     3     1     4    1
     4     3     5    1
     5     3     6    1
     6     3     7    1
     7     4     8    1
     8     4     9    1
     9     4    10    1

