DMS_1_A_508
  -ISIS-            3D

 10  9  0  0  0  0  0  0  0  0  1 V2000
   -0.0340  -12.9770   17.4540 S   0  0  0  0  0
    0.5150  -14.3560   17.6410 O   0  0  0  0  0
    1.1540  -11.9980   16.5020 C   0  0  0  0  0
    0.0000  -12.0730   19.0260 C   0  0  0  0  0
    0.7862  -10.9558   16.4084 H   0  0  0  0  0
    1.2633  -12.4384   15.4899 H   0  0  0  0  0
    2.1392  -12.0007   17.0119 H   0  0  0  0  0
   -0.3405  -11.0302   18.8621 H   0  0  0  0  0
    1.0310  -12.0686   19.4354 H   0  0  0  0  0
   -0.6798  -12.5700   19.7479 H   0  0  0  0  0
  1  2  2  0  0  0
  1  3  1  0  0  0
  1  4  1  0  0  0
  3  5  1  0  0  0
  3  6  1  0  0  0
  3  7  1  0  0  0
  4  8  1  0  0  0
  4  9  1  0  0  0
  4 10  1  0  0  0
M  END
$$$$
