@<TRIPOS>MOLECULE
DMS_1_A_507
 10 9 0 0 0
SMALL
NO_CHARGES

@<TRIPOS>ATOM
      1 S          11.5100    2.7910   33.0540 S.o    507  DMS507      0.0000
      2 O          12.9990    2.6810   33.1150 O.2    507  DMS507      0.0000
      3 C1         11.0210    3.2700   31.3730 C.3    507  DMS507      0.0000
      4 C2         10.9830    4.2610   33.9780 C.3    507  DMS507      0.0000
      5 H           9.9233    3.4247   31.3362 H      507  DMS507      0.0000
      6 H          11.2998    2.4610   30.6672 H      507  DMS507      0.0000
      7 H          11.5396    4.2066   31.0824 H      507  DMS507      0.0000
      8 H           9.8862    4.3900   33.8751 H      507  DMS507      0.0000
      9 H          11.5027    5.1590   33.5853 H      507  DMS507      0.0000
     10 H          11.2364    4.1288   35.0497 H      507  DMS507      0.0000
@<TRIPOS>BOND
     1     1     2    2
     2     1     3    1
     3     1     4    1
     4     3     5    1
     5     3     6    1
     6     3     7    1
     7     4     8    1
     8     4     9    1
     9     4    10    1

