@<TRIPOS>MOLECULE
DMS_1_B_401
 10 9 0 0 0
SMALL
NO_CHARGES

@<TRIPOS>ATOM
      1 S          -7.1240    2.7300   12.1650 S.o    401  DMS401      0.0000
      2 O          -7.9890    1.9950   11.1930 O.2    401  DMS401      0.0000
      3 C1         -7.8180    4.3760   12.4810 C.3    401  DMS401      0.0000
      4 C2         -5.5590    3.1770   11.3640 C.3    401  DMS401      0.0000
      5 H          -7.1412    4.9408   13.1541 H      401  DMS401      0.0000
      6 H          -8.8095    4.2677   12.9663 H      401  DMS401      0.0000
      7 H          -7.9348    4.9247   11.5240 H      401  DMS401      0.0000
      8 H          -4.9406    3.7736   12.0653 H      401  DMS401      0.0000
      9 H          -5.7612    3.7700   10.4486 H      401  DMS401      0.0000
     10 H          -5.0114    2.2522   11.0897 H      401  DMS401      0.0000
@<TRIPOS>BOND
     1     1     2    2
     2     1     3    1
     3     1     4    1
     4     3     5    1
     5     3     6    1
     6     3     7    1
     7     4     8    1
     8     4     9    1
     9     4    10    1

