@<TRIPOS>MOLECULE
DMS_2_A_401
 10 9 0 0 0
SMALL
NO_CHARGES

@<TRIPOS>ATOM
      1 S          -6.9440  -28.0850  -21.4960 S.o    401  DMS401      0.0000
      2 O          -7.7950  -27.1950  -22.3270 O.2    401  DMS401      0.0000
      3 C1         -5.7630  -28.7970  -22.6070 C.3    401  DMS401      0.0000
      4 C2         -5.8520  -27.0160  -20.6200 C.3    401  DMS401      0.0000
      5 H          -4.9979  -29.3593  -22.0336 H      401  DMS401      0.0000
      6 H          -5.2673  -28.0052  -23.2054 H      401  DMS401      0.0000
      7 H          -6.2807  -29.4973  -23.2940 H      401  DMS401      0.0000
      8 H          -5.0843  -27.6144  -20.0882 H      401  DMS401      0.0000
      9 H          -6.4285  -26.4320  -19.8737 H      401  DMS401      0.0000
     10 H          -5.3523  -26.3136  -21.3184 H      401  DMS401      0.0000
@<TRIPOS>BOND
     1     1     2    2
     2     1     3    1
     3     1     4    1
     4     3     5    1
     5     3     6    1
     6     3     7    1
     7     4     8    1
     8     4     9    1
     9     4    10    1

