DMS_1_A_402
  -ISIS-            3D

 10  9  0  0  0  0  0  0  0  0  1 V2000
    6.1180   -1.1330   -6.2530 S   0  0  0  0  0
    7.0610   -0.8010   -7.3500 O   0  0  0  0  0
    7.0200   -0.9840   -4.7200 C   0  0  0  0  0
    5.9200   -2.8880   -6.2290 C   0  0  0  0  0
    6.3912   -1.3373   -3.8773 H   0  0  0  0  0
    7.2798    0.0811   -4.5511 H   0  0  0  0  0
    7.9539   -1.5813   -4.7621 H   0  0  0  0  0
    5.3203   -3.1886   -5.3457 H   0  0  0  0  0
    6.9089   -3.3893   -6.1924 H   0  0  0  0  0
    5.3877   -3.2095   -7.1475 H   0  0  0  0  0
  1  2  2  0  0  0
  1  3  1  0  0  0
  1  4  1  0  0  0
  3  5  1  0  0  0
  3  6  1  0  0  0
  3  7  1  0  0  0
  4  8  1  0  0  0
  4  9  1  0  0  0
  4 10  1  0  0  0
M  END
$$$$
