@<TRIPOS>MOLECULE
DMS_1_A_403
 10 9 0 0 0
SMALL
NO_CHARGES

@<TRIPOS>ATOM
      1 S           2.2700  -18.7640    8.1970 S.o    403  DMS403      0.0000
      2 O           2.1190  -20.2430    8.3450 O.2    403  DMS403      0.0000
      3 C1          1.0860  -17.9180    9.2820 C.3    403  DMS403      0.0000
      4 C2          3.8140  -18.2740    9.0100 C.3    403  DMS403      0.0000
      5 H           1.2613  -16.8235    9.2413 H      403  DMS403      0.0000
      6 H           1.2072  -18.2766   10.3247 H      403  DMS403      0.0000
      7 H           0.0546  -18.1355    8.9368 H      403  DMS403      0.0000
      8 H           3.9138  -17.1696    8.9833 H      403  DMS403      0.0000
      9 H           4.6708  -18.7304    8.4733 H      403  DMS403      0.0000
     10 H           3.8133  -18.6224   10.0632 H      403  DMS403      0.0000
@<TRIPOS>BOND
     1     1     2    2
     2     1     3    1
     3     1     4    1
     4     3     5    1
     5     3     6    1
     6     3     7    1
     7     4     8    1
     8     4     9    1
     9     4    10    1

