@<TRIPOS>MOLECULE
DMS_1_A_405
 10 9 0 0 0
SMALL
NO_CHARGES

@<TRIPOS>ATOM
      1 S           6.1920   -0.8930   -6.2920 S.o    405  DMS405      0.0000
      2 O           7.2930   -0.7320   -7.2820 O.2    405  DMS405      0.0000
      3 C1          5.4730   -2.5590   -6.4100 C.3    405  DMS405      0.0000
      4 C2          6.8590   -0.9590   -4.5950 C.3    405  DMS405      0.0000
      5 H           4.6866   -2.6791   -5.6371 H      405  DMS405      0.0000
      6 H           6.2646   -3.3214   -6.2591 H      405  DMS405      0.0000
      7 H           5.0217   -2.6910   -7.4146 H      405  DMS405      0.0000
      8 H           6.0300   -1.1268   -3.8775 H      405  DMS405      0.0000
      9 H           7.3561    0.0047   -4.3615 H      405  DMS405      0.0000
     10 H           7.5969   -1.7834   -4.5138 H      405  DMS405      0.0000
@<TRIPOS>BOND
     1     1     2    2
     2     1     3    1
     3     1     4    1
     4     3     5    1
     5     3     6    1
     6     3     7    1
     7     4     8    1
     8     4     9    1
     9     4    10    1

