@<TRIPOS>MOLECULE
NOL_1_A_401
 93 95 0 0 0
SMALL
NO_CHARGES

@<TRIPOS>ATOM
      1 C1         42.5580    9.4820  -17.8770 C.ar   401  NOL401      0.0000
      2 C2         43.1060    8.3180  -18.4040 C.ar   401  NOL401      0.0000
      3 C3         44.5120    8.2160  -18.4560 C.ar   401  NOL401      0.0000
      4 C4         45.3530    9.2330  -17.9810 C.ar   401  NOL401      0.0000
      5 C5         44.7850   10.3930  -17.4550 C.ar   401  NOL401      0.0000
      6 C6         43.3940   10.4970  -17.4060 C.ar   401  NOL401      0.0000
      7 C13        42.1840    7.2010  -18.9050 C.3    401  NOL401      0.0000
      8 O15        41.6040    6.4230  -17.8420 O.3    401  NOL401      0.0000
      9 C17        42.4510    5.7700  -16.8300 C.2    401  NOL401      0.0000
     10 N19        41.8770    5.1120  -15.8190 N.am   401  NOL401      0.0000
     11 C21        42.6740    4.2700  -14.9290 C.3    401  NOL401      0.0000
     12 C23        42.0280    2.9670  -14.5490 C.2    401  NOL401      0.0000
     13 N25        42.6230    1.9130  -15.1100 N.am   401  NOL401      0.0000
     14 C27        42.2410    0.5370  -14.8560 C.3    401  NOL401      0.0000
     15 C29        42.0630    0.2930  -13.3840 C.2    401  NOL401      0.0000
     16 N31        40.8570   -0.1370  -13.0150 N.am   401  NOL401      0.0000
     17 C33        40.6930   -0.6320  -11.6560 C.3    401  NOL401      0.0000
     18 C35        40.5020   -2.1470  -11.6820 C.3    401  NOL401      0.0000
     19 O39        40.6040   -2.7410  -10.3910 O.3    401  NOL401      0.0000
     20 C41        39.6530    0.2110  -10.9040 C.3    401  NOL401      0.0000
     21 C43        40.2000    1.6370  -10.7610 C.3    401  NOL401      0.0000
     22 C45        41.4330    1.6910   -9.8570 C.3    401  NOL401      0.0000
     23 C47        41.1410    2.7490   -8.7880 C.3    401  NOL401      0.0000
     24 N49        39.7680    3.1580   -9.0320 N.am   401  NOL401      0.0000
     25 C51        39.2300    2.5840  -10.1180 C.2    401  NOL401      0.0000
     26 O54        38.1190    2.7890  -10.5860 O.2    401  NOL401      0.0000
     27 O56        42.9750    0.4920  -12.5760 O.2    401  NOL401      0.0000
     28 C58        43.2570   -0.4580  -15.4440 C.3    401  NOL401      0.0000
     29 C60        43.4820   -0.2960  -16.9540 C.3    401  NOL401      0.0000
     30 C62        43.9560   -1.6230  -17.5540 C.3    401  NOL401      0.0000
     31 C63        44.2890   -1.5200  -19.0380 C.3    401  NOL401      0.0000
     32 C64        43.5310   -0.4130  -19.7380 C.3    401  NOL401      0.0000
     33 C65        42.1460   -0.2020  -19.1320 C.3    401  NOL401      0.0000
     34 C66        42.1950    0.1650  -17.6480 C.3    401  NOL401      0.0000
     35 O73        41.0640    2.9320  -13.7770 O.2    401  NOL401      0.0000
     36 C75        43.0460    4.9620  -13.6300 C.3    401  NOL401      0.0000
     37 C77        43.9880    4.0610  -12.8160 C.3    401  NOL401      0.0000
     38 O79        43.6530    6.2030  -13.9730 O.3    401  NOL401      0.0000
     39 C81        43.6520    7.2720  -13.0390 C.3    401  NOL401      0.0000
     40 C83        42.5860    6.9630  -11.9870 C.3    401  NOL401      0.0000
     41 C85        43.2690    8.5200  -13.8360 C.3    401  NOL401      0.0000
     42 C87        45.0640    7.3750  -12.4000 C.3    401  NOL401      0.0000
     43 O89        43.6750    5.8500  -16.9090 O.2    401  NOL401      0.0000
     44 H          41.4632    9.6067  -17.8201 H      401  NOL401      0.0000
     45 H          44.9720    7.3045  -18.8748 H      401  NOL401      0.0000
     46 H          46.4490    9.1173  -18.0260 H      401  NOL401      0.0000
     47 H          45.4238   11.2102  -17.0799 H      401  NOL401      0.0000
     48 H          42.9408   11.4107  -16.9836 H      401  NOL401      0.0000
     49 H          42.7436    6.5339  -19.5930 H      401  NOL401      0.0000
     50 H          41.3711    7.6505  -19.5122 H      401  NOL401      0.0000
     51 H          40.8593    5.1703  -15.6875 H      401  NOL401      0.0000
     52 H          43.6409    4.0332  -15.4326 H      401  NOL401      0.0000
     53 H          43.4105    2.0749  -15.7505 H      401  NOL401      0.0000
     54 H          41.2503    0.3547  -15.3299 H      401  NOL401      0.0000
     55 H          40.0593   -0.1425  -13.6647 H      401  NOL401      0.0000
     56 H          41.6481   -0.5069  -11.0965 H      401  NOL401      0.0000
     57 H          41.2499   -2.6187  -12.3571 H      401  NOL401      0.0000
     58 H          39.5029   -2.3879  -12.1035 H      401  NOL401      0.0000
     59 H          41.5214   -2.8187  -10.1639 H      401  NOL401      0.0000
     60 H          39.4463   -0.2257   -9.9004 H      401  NOL401      0.0000
     61 H          38.6907    0.2124  -11.4647 H      401  NOL401      0.0000
     62 H          40.4493    2.0549  -11.7594 H      401  NOL401      0.0000
     63 H          42.3485    1.9569  -10.4321 H      401  NOL401      0.0000
     64 H          41.6233    0.7165   -9.3535 H      401  NOL401      0.0000
     65 H          41.8417    3.6091   -8.8875 H      401  NOL401      0.0000
     66 H          41.2687    2.3272   -7.7654 H      401  NOL401      0.0000
     67 H          39.2438    3.8283   -8.4552 H      401  NOL401      0.0000
     68 H          42.8854   -1.4878  -15.2314 H      401  NOL401      0.0000
     69 H          44.2330   -0.3638  -14.9136 H      401  NOL401      0.0000
     70 H          44.2773    0.4705  -17.1218 H      401  NOL401      0.0000
     71 H          43.1588   -2.3905  -17.4139 H      401  NOL401      0.0000
     72 H          44.8479   -1.9984  -17.0004 H      401  NOL401      0.0000
     73 H          44.0702   -2.4975  -19.5280 H      401  NOL401      0.0000
     74 H          45.3832   -1.3493  -19.1686 H      401  NOL401      0.0000
     75 H          43.4454   -0.6385  -20.8262 H      401  NOL401      0.0000
     76 H          44.1044    0.5406  -19.6636 H      401  NOL401      0.0000
     77 H          41.5556   -1.1393  -19.2637 H      401  NOL401      0.0000
     78 H          41.5986    0.5871  -19.6982 H      401  NOL401      0.0000
     79 H          42.0779    1.2683  -17.5474 H      401  NOL401      0.0000
     80 H          41.3015   -0.3069  -17.1804 H      401  NOL401      0.0000
     81 H          42.0917    5.0985  -13.0862 H      401  NOL401      0.0000
     82 H          44.2986    4.5293  -11.8599 H      401  NOL401      0.0000
     83 H          44.9206    3.8278  -13.3746 H      401  NOL401      0.0000
     84 H          43.5208    3.0945  -12.5364 H      401  NOL401      0.0000
     85 H          42.5299    7.8049  -11.2620 H      401  NOL401      0.0000
     86 H          42.7970    6.0722  -11.3593 H      401  NOL401      0.0000
     87 H          41.5591    6.8856  -12.4071 H      401  NOL401      0.0000
     88 H          43.2229    9.4223  -13.1884 H      401  NOL401      0.0000
     89 H          42.2756    8.4136  -14.3245 H      401  NOL401      0.0000
     90 H          44.0061    8.7332  -14.6410 H      401  NOL401      0.0000
     91 H          45.1275    8.2365  -11.7002 H      401  NOL401      0.0000
     92 H          45.8489    7.5223  -13.1737 H      401  NOL401      0.0000
     93 H          45.3381    6.4673  -11.8234 H      401  NOL401      0.0000
@<TRIPOS>BOND
     1     1     2   ar
     2     1     6   ar
     3     1    44    1
     4     2     3   ar
     5     2     7    1
     6     3     4   ar
     7     3    45    1
     8     4     5   ar
     9     4    46    1
    10     5     6   ar
    11     5    47    1
    12     6    48    1
    13     7     8    1
    14     7    49    1
    15     7    50    1
    16     8     9    1
    17     9    10    1
    18     9    43    2
    19    10    11    1
    20    10    51    1
    21    11    12    1
    22    11    36    1
    23    11    52    1
    24    12    13    1
    25    12    35    2
    26    13    14    1
    27    13    53    1
    28    14    15    1
    29    14    28    1
    30    14    54    1
    31    15    16    1
    32    15    27    2
    33    16    17    1
    34    16    55    1
    35    17    18    1
    36    17    20    1
    37    17    56    1
    38    18    19    1
    39    18    57    1
    40    18    58    1
    41    19    59    1
    42    20    21    1
    43    20    60    1
    44    20    61    1
    45    21    22    1
    46    21    25    1
    47    21    62    1
    48    22    23    1
    49    22    63    1
    50    22    64    1
    51    23    24    1
    52    23    65    1
    53    23    66    1
    54    24    25    1
    55    24    67    1
    56    25    26    2
    57    28    29    1
    58    28    68    1
    59    28    69    1
    60    29    30    1
    61    29    34    1
    62    29    70    1
    63    30    31    1
    64    30    71    1
    65    30    72    1
    66    31    32    1
    67    31    73    1
    68    31    74    1
    69    32    33    1
    70    32    75    1
    71    32    76    1
    72    33    34    1
    73    33    77    1
    74    33    78    1
    75    34    79    1
    76    34    80    1
    77    36    37    1
    78    36    38    1
    79    36    81    1
    80    37    82    1
    81    37    83    1
    82    37    84    1
    83    38    39    1
    84    39    40    1
    85    39    41    1
    86    39    42    1
    87    40    85    1
    88    40    86    1
    89    40    87    1
    90    41    88    1
    91    41    89    1
    92    41    90    1
    93    42    91    1
    94    42    92    1
    95    42    93    1

