@<TRIPOS>MOLECULE
NOL_2_A_401
 93 95 0 0 0
SMALL
NO_CHARGES

@<TRIPOS>ATOM
      1 C1          2.8320    9.4820   17.8770 C.ar   401  NOL401      0.0000
      2 C2          2.2840    8.3180   18.4040 C.ar   401  NOL401      0.0000
      3 C3          0.8780    8.2160   18.4560 C.ar   401  NOL401      0.0000
      4 C4          0.0370    9.2330   17.9810 C.ar   401  NOL401      0.0000
      5 C5          0.6050   10.3930   17.4550 C.ar   401  NOL401      0.0000
      6 C6          1.9960   10.4970   17.4060 C.ar   401  NOL401      0.0000
      7 C13         3.2060    7.2010   18.9050 C.3    401  NOL401      0.0000
      8 O15         3.7860    6.4230   17.8420 O.3    401  NOL401      0.0000
      9 C17         2.9390    5.7700   16.8300 C.2    401  NOL401      0.0000
     10 N19         3.5130    5.1120   15.8190 N.am   401  NOL401      0.0000
     11 C21         2.7160    4.2700   14.9290 C.3    401  NOL401      0.0000
     12 C23         3.3620    2.9670   14.5490 C.2    401  NOL401      0.0000
     13 N25         2.7670    1.9130   15.1100 N.am   401  NOL401      0.0000
     14 C27         3.1490    0.5370   14.8560 C.3    401  NOL401      0.0000
     15 C29         3.3270    0.2930   13.3840 C.2    401  NOL401      0.0000
     16 N31         4.5330   -0.1370   13.0150 N.am   401  NOL401      0.0000
     17 C33         4.6970   -0.6320   11.6560 C.3    401  NOL401      0.0000
     18 C35         4.8880   -2.1470   11.6820 C.3    401  NOL401      0.0000
     19 O39         4.7860   -2.7410   10.3910 O.3    401  NOL401      0.0000
     20 C41         5.7370    0.2110   10.9040 C.3    401  NOL401      0.0000
     21 C43         5.1900    1.6370   10.7610 C.3    401  NOL401      0.0000
     22 C45         3.9570    1.6910    9.8570 C.3    401  NOL401      0.0000
     23 C47         4.2490    2.7490    8.7880 C.3    401  NOL401      0.0000
     24 N49         5.6220    3.1580    9.0320 N.am   401  NOL401      0.0000
     25 C51         6.1600    2.5840   10.1180 C.2    401  NOL401      0.0000
     26 O54         7.2710    2.7890   10.5860 O.2    401  NOL401      0.0000
     27 O56         2.4150    0.4920   12.5760 O.2    401  NOL401      0.0000
     28 C58         2.1330   -0.4580   15.4440 C.3    401  NOL401      0.0000
     29 C60         1.9080   -0.2960   16.9540 C.3    401  NOL401      0.0000
     30 C62         1.4340   -1.6230   17.5540 C.3    401  NOL401      0.0000
     31 C63         1.1010   -1.5200   19.0380 C.3    401  NOL401      0.0000
     32 C64         1.8590   -0.4130   19.7380 C.3    401  NOL401      0.0000
     33 C65         3.2440   -0.2020   19.1320 C.3    401  NOL401      0.0000
     34 C66         3.1950    0.1650   17.6480 C.3    401  NOL401      0.0000
     35 O73         4.3260    2.9320   13.7770 O.2    401  NOL401      0.0000
     36 C75         2.3440    4.9620   13.6300 C.3    401  NOL401      0.0000
     37 C77         1.4020    4.0610   12.8160 C.3    401  NOL401      0.0000
     38 O79         1.7370    6.2030   13.9730 O.3    401  NOL401      0.0000
     39 C81         1.7380    7.2720   13.0390 C.3    401  NOL401      0.0000
     40 C83         2.8040    6.9630   11.9870 C.3    401  NOL401      0.0000
     41 C85         2.1210    8.5200   13.8360 C.3    401  NOL401      0.0000
     42 C87         0.3260    7.3750   12.4000 C.3    401  NOL401      0.0000
     43 O89         1.7150    5.8500   16.9090 O.2    401  NOL401      0.0000
     44 H           3.9268    9.6067   17.8200 H      401  NOL401      0.0000
     45 H           0.4180    7.3045   18.8747 H      401  NOL401      0.0000
     46 H          -1.0590    9.1172   18.0260 H      401  NOL401      0.0000
     47 H          -0.0338   11.2102   17.0799 H      401  NOL401      0.0000
     48 H           2.4492   11.4107   16.9835 H      401  NOL401      0.0000
     49 H           2.6465    6.5340   19.5931 H      401  NOL401      0.0000
     50 H           4.0189    7.6506   19.5121 H      401  NOL401      0.0000
     51 H           4.5306    5.1702   15.6873 H      401  NOL401      0.0000
     52 H           1.7491    4.0332   15.4327 H      401  NOL401      0.0000
     53 H           1.9790    2.0748   15.7500 H      401  NOL401      0.0000
     54 H           4.1397    0.3547   15.3299 H      401  NOL401      0.0000
     55 H           5.3308   -0.1411   13.6651 H      401  NOL401      0.0000
     56 H           3.7423   -0.5101   11.0948 H      401  NOL401      0.0000
     57 H           4.1212   -2.6067   12.3444 H      401  NOL401      0.0000
     58 H           5.8801   -2.3899   12.1207 H      401  NOL401      0.0000
     59 H           4.8760   -3.6802   10.4825 H      401  NOL401      0.0000
     60 H           5.9438   -0.2258    9.9005 H      401  NOL401      0.0000
     61 H           6.6993    0.2124   11.4648 H      401  NOL401      0.0000
     62 H           4.9407    2.0549   11.7595 H      401  NOL401      0.0000
     63 H           3.0416    1.9569   10.4321 H      401  NOL401      0.0000
     64 H           3.7666    0.7165    9.3536 H      401  NOL401      0.0000
     65 H           3.5482    3.6091    8.8875 H      401  NOL401      0.0000
     66 H           4.1212    2.3272    7.7654 H      401  NOL401      0.0000
     67 H           6.1459    3.8283    8.4549 H      401  NOL401      0.0000
     68 H           2.5046   -1.4878   15.2314 H      401  NOL401      0.0000
     69 H           1.1570   -0.3638   14.9136 H      401  NOL401      0.0000
     70 H           1.1127    0.4705   17.1218 H      401  NOL401      0.0000
     71 H           2.2311   -2.3906   17.4139 H      401  NOL401      0.0000
     72 H           0.5421   -1.9984   17.0004 H      401  NOL401      0.0000
     73 H           1.3198   -2.4975   19.5280 H      401  NOL401      0.0000
     74 H           0.0068   -1.3493   19.1686 H      401  NOL401      0.0000
     75 H           1.9447   -0.6385   20.8262 H      401  NOL401      0.0000
     76 H           1.2856    0.5406   19.6637 H      401  NOL401      0.0000
     77 H           3.8345   -1.1392   19.2638 H      401  NOL401      0.0000
     78 H           3.7913    0.5872   19.6981 H      401  NOL401      0.0000
     79 H           3.3123    1.2683   17.5473 H      401  NOL401      0.0000
     80 H           4.0885   -0.3071   17.1805 H      401  NOL401      0.0000
     81 H           3.2984    5.0985   13.0860 H      401  NOL401      0.0000
     82 H           1.0918    4.5291   11.8597 H      401  NOL401      0.0000
     83 H           0.4692    3.8282   13.3744 H      401  NOL401      0.0000
     84 H           1.8690    3.0943   12.5367 H      401  NOL401      0.0000
     85 H           2.8611    7.8055   11.2628 H      401  NOL401      0.0000
     86 H           2.5922    6.0730   11.3584 H      401  NOL401      0.0000
     87 H           3.8308    6.8842   12.4072 H      401  NOL401      0.0000
     88 H           2.1674    9.4223   13.1884 H      401  NOL401      0.0000
     89 H           3.1143    8.4135   14.3248 H      401  NOL401      0.0000
     90 H           1.3838    8.7333   14.6408 H      401  NOL401      0.0000
     91 H           0.2625    8.2365   11.7003 H      401  NOL401      0.0000
     92 H          -0.4589    7.5222   13.1737 H      401  NOL401      0.0000
     93 H           0.0519    6.4673   11.8233 H      401  NOL401      0.0000
@<TRIPOS>BOND
     1     1     2   ar
     2     1     6   ar
     3     1    44    1
     4     2     3   ar
     5     2     7    1
     6     3     4   ar
     7     3    45    1
     8     4     5   ar
     9     4    46    1
    10     5     6   ar
    11     5    47    1
    12     6    48    1
    13     7     8    1
    14     7    49    1
    15     7    50    1
    16     8     9    1
    17     9    10    1
    18     9    43    2
    19    10    11    1
    20    10    51    1
    21    11    12    1
    22    11    36    1
    23    11    52    1
    24    12    13    1
    25    12    35    2
    26    13    14    1
    27    13    53    1
    28    14    15    1
    29    14    28    1
    30    14    54    1
    31    15    16    1
    32    15    27    2
    33    16    17    1
    34    16    55    1
    35    17    18    1
    36    17    20    1
    37    17    56    1
    38    18    19    1
    39    18    57    1
    40    18    58    1
    41    19    59    1
    42    20    21    1
    43    20    60    1
    44    20    61    1
    45    21    22    1
    46    21    25    1
    47    21    62    1
    48    22    23    1
    49    22    63    1
    50    22    64    1
    51    23    24    1
    52    23    65    1
    53    23    66    1
    54    24    25    1
    55    24    67    1
    56    25    26    2
    57    28    29    1
    58    28    68    1
    59    28    69    1
    60    29    30    1
    61    29    34    1
    62    29    70    1
    63    30    31    1
    64    30    71    1
    65    30    72    1
    66    31    32    1
    67    31    73    1
    68    31    74    1
    69    32    33    1
    70    32    75    1
    71    32    76    1
    72    33    34    1
    73    33    77    1
    74    33    78    1
    75    34    79    1
    76    34    80    1
    77    36    37    1
    78    36    38    1
    79    36    81    1
    80    37    82    1
    81    37    83    1
    82    37    84    1
    83    38    39    1
    84    39    40    1
    85    39    41    1
    86    39    42    1
    87    40    85    1
    88    40    86    1
    89    40    87    1
    90    41    88    1
    91    41    89    1
    92    41    90    1
    93    42    91    1
    94    42    92    1
    95    42    93    1

