@<TRIPOS>MOLECULE
DMS_1_A_1004
 10 9 0 0 0
SMALL
NO_CHARGES

@<TRIPOS>ATOM
      1 S           2.4670  -18.9170    8.1700 S.o   1004  DMS1004      0.0000
      2 O           3.7710  -18.6170    8.8580 O.2   1004  DMS1004      0.0000
      3 C1          1.2190  -18.0580    9.0930 C.3   1004  DMS1004      0.0000
      4 C2          2.0310  -20.5720    8.6420 C.3   1004  DMS1004      0.0000
      5 H           0.2132  -18.3497    8.7277 H     1004  DMS1004      0.0000
      6 H           1.3471  -16.9650    8.9533 H     1004  DMS1004      0.0000
      7 H           1.3035  -18.2964   10.1733 H     1004  DMS1004      0.0000
      8 H           1.0071  -20.8072    8.2863 H     1004  DMS1004      0.0000
      9 H           2.0742  -20.6840    9.7450 H     1004  DMS1004      0.0000
     10 H           2.7434  -21.2847    8.1785 H     1004  DMS1004      0.0000
@<TRIPOS>BOND
     1     1     2    2
     2     1     3    1
     3     1     4    1
     4     3     5    1
     5     3     6    1
     6     3     7    1
     7     4     8    1
     8     4     9    1
     9     4    10    1

