DMS_1_A_1002
  -ISIS-            3D

 10  9  0  0  0  0  0  0  0  0  1 V2000
    7.4280  -28.0350   20.9550 S   0  0  0  0  0
    8.1890  -27.2220   21.9770 O   0  0  0  0  0
    6.3500  -29.1110   21.8720 C   0  0  0  0  0
    6.1800  -26.9740   20.2830 C   0  0  0  0  0
    5.6661  -29.6404   21.1774 H   0  0  0  0  0
    5.7552  -28.5290   22.6055 H   0  0  0  0  0
    6.9589  -29.8619   22.4160 H   0  0  0  0  0
    5.5016  -27.5575   19.6275 H   0  0  0  0  0
    6.6621  -26.1778   19.6796 H   0  0  0  0  0
    5.5925  -26.5027   21.0974 H   0  0  0  0  0
  1  2  2  0  0  0
  1  3  1  0  0  0
  1  4  1  0  0  0
  3  5  1  0  0  0
  3  6  1  0  0  0
  3  7  1  0  0  0
  4  8  1  0  0  0
  4  9  1  0  0  0
  4 10  1  0  0  0
M  END
$$$$
