@<TRIPOS>MOLECULE
DMS_1_A_1003
 10 9 0 0 0
SMALL
NO_CHARGES

@<TRIPOS>ATOM
      1 S           5.7980   -1.2080   -6.4440 S.o   1003  DMS1003      0.0000
      2 O           6.3970   -0.8310   -7.7710 O.2   1003  DMS1003      0.0000
      3 C1          7.1000   -1.0580   -5.2440 C.3   1003  DMS1003      0.0000
      4 C2          5.6560   -2.9760   -6.4430 C.3   1003  DMS1003      0.0000
      5 H           6.7576   -1.4540   -4.2660 H     1003  DMS1003      0.0000
      6 H           7.3660    0.0121   -5.1238 H     1003  DMS1003      0.0000
      7 H           7.9976   -1.6183   -5.5761 H     1003  DMS1003      0.0000
      8 H           5.3470   -3.3282   -5.4375 H     1003  DMS1003      0.0000
      9 H           6.6248   -3.4417   -6.7161 H     1003  DMS1003      0.0000
     10 H           4.8872   -3.2825   -7.1815 H     1003  DMS1003      0.0000
@<TRIPOS>BOND
     1     1     2    2
     2     1     3    1
     3     1     4    1
     4     3     5    1
     5     3     6    1
     6     3     7    1
     7     4     8    1
     8     4     9    1
     9     4    10    1

