@<TRIPOS>MOLECULE
DMS_2_A_1002
 10 9 0 0 0
SMALL
NO_CHARGES

@<TRIPOS>ATOM
      1 S          -7.4280  -28.0350  -20.9550 S.o   1002  DMS1002      0.0000
      2 O          -8.1890  -27.2220  -21.9770 O.2   1002  DMS1002      0.0000
      3 C1         -6.3500  -29.1110  -21.8720 C.3   1002  DMS1002      0.0000
      4 C2         -6.1800  -26.9740  -20.2830 C.3   1002  DMS1002      0.0000
      5 H          -5.6661  -29.6404  -21.1774 H     1002  DMS1002      0.0000
      6 H          -5.7552  -28.5290  -22.6055 H     1002  DMS1002      0.0000
      7 H          -6.9589  -29.8619  -22.4160 H     1002  DMS1002      0.0000
      8 H          -5.5016  -27.5575  -19.6275 H     1002  DMS1002      0.0000
      9 H          -6.6621  -26.1778  -19.6796 H     1002  DMS1002      0.0000
     10 H          -5.5925  -26.5027  -21.0974 H     1002  DMS1002      0.0000
@<TRIPOS>BOND
     1     1     2    2
     2     1     3    1
     3     1     4    1
     4     3     5    1
     5     3     6    1
     6     3     7    1
     7     4     8    1
     8     4     9    1
     9     4    10    1

