DMS_1_A_1004
  -ISIS-            3D

 10  9  0  0  0  0  0  0  0  0  1 V2000
    2.4670  -18.9170    8.1700 S   0  0  0  0  0
    3.7710  -18.6170    8.8580 O   0  0  0  0  0
    1.2190  -18.0580    9.0930 C   0  0  0  0  0
    2.0310  -20.5720    8.6420 C   0  0  0  0  0
    0.2132  -18.3497    8.7277 H   0  0  0  0  0
    1.3471  -16.9650    8.9533 H   0  0  0  0  0
    1.3035  -18.2964   10.1733 H   0  0  0  0  0
    1.0071  -20.8072    8.2863 H   0  0  0  0  0
    2.0742  -20.6840    9.7450 H   0  0  0  0  0
    2.7434  -21.2847    8.1785 H   0  0  0  0  0
  1  2  2  0  0  0
  1  3  1  0  0  0
  1  4  1  0  0  0
  3  5  1  0  0  0
  3  6  1  0  0  0
  3  7  1  0  0  0
  4  8  1  0  0  0
  4  9  1  0  0  0
  4 10  1  0  0  0
M  END
$$$$
