@<TRIPOS>MOLECULE
DMS_2_A_403
 10 9 0 0 0
SMALL
NO_CHARGES

@<TRIPOS>ATOM
      1 S          -2.3910  -18.8730   -8.1000 S.o    403  DMS403      0.0000
      2 O          -3.6430  -18.6780   -8.9420 O.2    403  DMS403      0.0000
      3 C1         -1.0680  -18.1340   -9.0440 C.3    403  DMS403      0.0000
      4 C2         -1.9220  -20.5640   -8.3790 C.3    403  DMS403      0.0000
      5 H          -0.0910  -18.3853   -8.5830 H      403  DMS403      0.0000
      6 H          -1.1909  -17.0316   -9.0438 H      403  DMS403      0.0000
      7 H          -1.0885  -18.4990  -10.0915 H      403  DMS403      0.0000
      8 H          -0.9222  -20.7553   -7.9385 H      403  DMS403      0.0000
      9 H          -1.8959  -20.7859   -9.4658 H      403  DMS403      0.0000
     10 H          -2.6603  -21.2337   -7.8925 H      403  DMS403      0.0000
@<TRIPOS>BOND
     1     1     2    2
     2     1     3    1
     3     1     4    1
     4     3     5    1
     5     3     6    1
     6     3     7    1
     7     4     8    1
     8     4     9    1
     9     4    10    1

