4AP_1_A_201
  -ISIS-            3D

 13 13  0  0  0  0  0  0  0  0  1 V2000
   -2.5080   15.0140   -0.2800 N   0  0  0  0  0
   -3.3710   15.1960    0.7350 C   0  0  0  0  0
   -4.7380   15.3120    0.5600 C   0  0  0  0  0
   -5.2700   15.2480   -0.7290 C   0  0  0  0  0
   -4.3810   15.0520   -1.7830 C   0  0  0  0  0
   -3.0270   14.9390   -1.5160 C   0  0  0  0  0
   -6.6220   15.3960   -0.9530 N   0  0  0  0  0
   -2.9490   15.2542    1.7528 H   0  0  0  0  0
   -5.3964   15.4614    1.4313 H   0  0  0  0  0
   -4.7464   14.9908   -2.8211 H   0  0  0  0  0
   -2.3226   14.7846   -2.3511 H   0  0  0  0  0
   -6.9372   15.3454   -1.9302 H   0  0  0  0  0
   -7.2138   15.5459   -0.1258 H   0  0  0  0  0
  1  2  2  0  0  0
  1  6  1  0  0  0
  2  3  1  0  0  0
  2  8  1  0  0  0
  3  4  2  0  0  0
  3  9  1  0  0  0
  4  5  1  0  0  0
  4  7  1  0  0  0
  5  6  2  0  0  0
  5 10  1  0  0  0
  6 11  1  0  0  0
  7 12  1  0  0  0
  7 13  1  0  0  0
M  END
$$$$
