DMS_1_A_402
  -ISIS-            3D

 10  9  0  0  0  0  0  0  0  0  1 V2000
   -0.3380    9.0240   -7.3440 S   0  0  0  0  0
    0.3750    8.5600   -8.5530 O   0  0  0  0  0
   -2.0390    8.6350   -7.6090 C   0  0  0  0  0
   -0.4730   10.7390   -7.6030 C   0  0  0  0  0
   -2.6639    9.1207   -6.8317 H   0  0  0  0  0
   -2.1778    7.5365   -7.5403 H   0  0  0  0  0
   -2.3675    8.9751   -8.6124 H   0  0  0  0  0
   -1.1382   11.1878   -6.8371 H   0  0  0  0  0
   -0.8786   10.9566   -8.6124 H   0  0  0  0  0
    0.5296   11.2055   -7.5138 H   0  0  0  0  0
  1  2  2  0  0  0
  1  3  1  0  0  0
  1  4  1  0  0  0
  3  5  1  0  0  0
  3  6  1  0  0  0
  3  7  1  0  0  0
  4  8  1  0  0  0
  4  9  1  0  0  0
  4 10  1  0  0  0
M  END
$$$$
