@<TRIPOS>MOLECULE
DMS_1_A_402
 10 9 0 0 0
SMALL
NO_CHARGES

@<TRIPOS>ATOM
      1 S          -0.3380    9.0240   -7.3440 S.o    402  DMS402      0.0000
      2 O           0.3750    8.5600   -8.5530 O.2    402  DMS402      0.0000
      3 C1         -2.0390    8.6350   -7.6090 C.3    402  DMS402      0.0000
      4 C2         -0.4730   10.7390   -7.6030 C.3    402  DMS402      0.0000
      5 H          -2.6639    9.1207   -6.8317 H      402  DMS402      0.0000
      6 H          -2.1778    7.5365   -7.5403 H      402  DMS402      0.0000
      7 H          -2.3675    8.9751   -8.6124 H      402  DMS402      0.0000
      8 H          -1.1382   11.1878   -6.8371 H      402  DMS402      0.0000
      9 H          -0.8786   10.9566   -8.6124 H      402  DMS402      0.0000
     10 H           0.5296   11.2055   -7.5138 H      402  DMS402      0.0000
@<TRIPOS>BOND
     1     1     2    2
     2     1     3    1
     3     1     4    1
     4     3     5    1
     5     3     6    1
     6     3     7    1
     7     4     8    1
     8     4     9    1
     9     4    10    1

