DMS_1_A_403
  -ISIS-            3D

 10  9  0  0  0  0  0  0  0  0  1 V2000
    2.4170  -19.0160    8.0730 S   0  0  0  0  0
    3.7480  -18.7680    8.7990 O   0  0  0  0  0
    1.1800  -18.1480    9.0140 C   0  0  0  0  0
    1.9450  -20.6600    8.5500 C   0  0  0  0  0
    0.1689  -18.4188    8.6469 H   0  0  0  0  0
    1.3256  -17.0555    8.8886 H   0  0  0  0  0
    1.2635  -18.4018   10.0907 H   0  0  0  0  0
    0.9142  -20.8726    8.1998 H   0  0  0  0  0
    1.9914  -20.7727    9.6526 H   0  0  0  0  0
    2.6382  -21.3896    8.0835 H   0  0  0  0  0
  1  2  2  0  0  0
  1  3  1  0  0  0
  1  4  1  0  0  0
  3  5  1  0  0  0
  3  6  1  0  0  0
  3  7  1  0  0  0
  4  8  1  0  0  0
  4  9  1  0  0  0
  4 10  1  0  0  0
M  END
$$$$
