@<TRIPOS>MOLECULE
DMS_2_A_405
 10 9 0 0 0
SMALL
NO_CHARGES

@<TRIPOS>ATOM
      1 S          -6.2380    0.7530  -17.4490 S.o    405  DMS405      0.0000
      2 O          -7.5600    0.8560  -18.1520 O.2    405  DMS405      0.0000
      3 C1         -5.4480    2.3300  -17.6050 C.3    405  DMS405      0.0000
      4 C2         -5.1660   -0.1380  -18.5440 C.3    405  DMS405      0.0000
      5 H          -4.4064    2.2698  -17.2282 H      405  DMS405      0.0000
      6 H          -6.0025    3.0782  -17.0022 H      405  DMS405      0.0000
      7 H          -5.4398    2.6571  -18.6649 H      405  DMS405      0.0000
      8 H          -4.1307   -0.1331  -18.1458 H      405  DMS405      0.0000
      9 H          -5.1759    0.3193  -19.5545 H      405  DMS405      0.0000
     10 H          -5.5132   -1.1888  -18.6213 H      405  DMS405      0.0000
@<TRIPOS>BOND
     1     1     2    2
     2     1     3    1
     3     1     4    1
     4     3     5    1
     5     3     6    1
     6     3     7    1
     7     4     8    1
     8     4     9    1
     9     4    10    1

