@<TRIPOS>MOLECULE
DMS_1_A_403
 10 9 0 0 0
SMALL
NO_CHARGES

@<TRIPOS>ATOM
      1 S           2.4170  -19.0160    8.0730 S.o    403  DMS403      0.0000
      2 O           3.7480  -18.7680    8.7990 O.2    403  DMS403      0.0000
      3 C1          1.1800  -18.1480    9.0140 C.3    403  DMS403      0.0000
      4 C2          1.9450  -20.6600    8.5500 C.3    403  DMS403      0.0000
      5 H           0.1689  -18.4188    8.6469 H      403  DMS403      0.0000
      6 H           1.3256  -17.0555    8.8886 H      403  DMS403      0.0000
      7 H           1.2635  -18.4018   10.0907 H      403  DMS403      0.0000
      8 H           0.9142  -20.8726    8.1998 H      403  DMS403      0.0000
      9 H           1.9914  -20.7727    9.6526 H      403  DMS403      0.0000
     10 H           2.6382  -21.3896    8.0835 H      403  DMS403      0.0000
@<TRIPOS>BOND
     1     1     2    2
     2     1     3    1
     3     1     4    1
     4     3     5    1
     5     3     6    1
     6     3     7    1
     7     4     8    1
     8     4     9    1
     9     4    10    1

