@<TRIPOS>MOLECULE
DMS_2_A_401
 10 9 0 0 0
SMALL
NO_CHARGES

@<TRIPOS>ATOM
      1 S          -6.9760  -28.1690  -21.3750 S.o    401  DMS401      0.0000
      2 O          -7.6910  -27.2480  -22.2610 O.2    401  DMS401      0.0000
      3 C1         -5.7380  -28.9620  -22.3670 C.3    401  DMS401      0.0000
      4 C2         -5.9120  -27.1730  -20.3840 C.3    401  DMS401      0.0000
      5 H          -5.0727  -29.5716  -21.7220 H      401  DMS401      0.0000
      6 H          -5.1345  -28.2060  -22.9103 H      401  DMS401      0.0000
      7 H          -6.2302  -29.6287  -23.1042 H      401  DMS401      0.0000
      8 H          -5.2416  -27.8205  -19.7825 H      401  DMS401      0.0000
      9 H          -6.5230  -26.5550  -19.6948 H      401  DMS401      0.0000
     10 H          -5.3009  -26.5027  -21.0230 H      401  DMS401      0.0000
@<TRIPOS>BOND
     1     1     2    2
     2     1     3    1
     3     1     4    1
     4     3     5    1
     5     3     6    1
     6     3     7    1
     7     4     8    1
     8     4     9    1
     9     4    10    1

