@<TRIPOS>MOLECULE
DMS_1_A_405
 10 9 0 0 0
SMALL
NO_CHARGES

@<TRIPOS>ATOM
      1 S           2.3990  -18.9840    8.1270 S.o    405  DMS405      0.0000
      2 O           2.2490  -20.4750    7.9910 O.2    405  DMS405      0.0000
      3 C1          1.1180  -18.3790    9.2710 C.3    405  DMS405      0.0000
      4 C2          3.8820  -18.6840    9.1380 C.3    405  DMS405      0.0000
      5 H           1.2792  -17.2998    9.4701 H      405  DMS405      0.0000
      6 H           1.1660  -18.9454   10.2236 H      405  DMS405      0.0000
      7 H           0.1198  -18.5206    8.8087 H      405  DMS405      0.0000
      8 H           3.9755  -17.5984    9.3452 H      405  DMS405      0.0000
      9 H           4.7783  -19.0286    8.5828 H      405  DMS405      0.0000
     10 H           3.8051  -19.2407   10.0944 H      405  DMS405      0.0000
@<TRIPOS>BOND
     1     1     2    2
     2     1     3    1
     3     1     4    1
     4     3     5    1
     5     3     6    1
     6     3     7    1
     7     4     8    1
     8     4     9    1
     9     4    10    1

