DMS_1_A_404
  -ISIS-            3D

 10  9  0  0  0  0  0  0  0  0  1 V2000
    6.1600   -1.1030   -6.3650 S   0  0  0  0  0
    7.0750   -0.5940   -7.4230 O   0  0  0  0  0
    5.9710   -2.8960   -6.5170 C   0  0  0  0  0
    6.9610   -1.0070   -4.7330 C   0  0  0  0  0
    5.3279   -3.2728   -5.6956 H   0  0  0  0  0
    6.9656   -3.3845   -6.4654 H   0  0  0  0  0
    5.4958   -3.1334   -7.4907 H   0  0  0  0  0
    6.2879   -1.4378   -3.9638 H   0  0  0  0  0
    7.1648    0.0553   -4.4876 H   0  0  0  0  0
    7.9165   -1.5702   -4.7508 H   0  0  0  0  0
  1  2  2  0  0  0
  1  3  1  0  0  0
  1  4  1  0  0  0
  3  5  1  0  0  0
  3  6  1  0  0  0
  3  7  1  0  0  0
  4  8  1  0  0  0
  4  9  1  0  0  0
  4 10  1  0  0  0
M  END
$$$$
