DMS_1_A_408
  -ISIS-            3D

 10  9  0  0  0  0  0  0  0  0  1 V2000
    6.1480  -22.6400   -1.3690 S   0  0  0  0  0
    6.5140  -23.7700   -0.4760 O   0  0  0  0  0
    4.9860  -21.5150   -0.5450 C   0  0  0  0  0
    7.5760  -21.5420   -1.5950 C   0  0  0  0  0
    4.7651  -20.6566   -1.2117 H   0  0  0  0  0
    5.4288  -21.1466    0.4030 H   0  0  0  0  0
    4.0448  -22.0590   -0.3246 H   0  0  0  0  0
    7.2847  -20.6810   -2.2306 H   0  0  0  0  0
    8.3937  -22.1032   -2.0916 H   0  0  0  0  0
    7.9273  -21.1753   -0.6088 H   0  0  0  0  0
  1  2  2  0  0  0
  1  3  1  0  0  0
  1  4  1  0  0  0
  3  5  1  0  0  0
  3  6  1  0  0  0
  3  7  1  0  0  0
  4  8  1  0  0  0
  4  9  1  0  0  0
  4 10  1  0  0  0
M  END
$$$$
