@<TRIPOS>MOLECULE
DMS_1_A_406
 10 9 0 0 0
SMALL
NO_CHARGES

@<TRIPOS>ATOM
      1 S          20.4680  -16.0650    5.0740 S.o    406  DMS406      0.0000
      2 O          20.3640  -15.7600    3.6130 O.2    406  DMS406      0.0000
      3 C1         20.6980  -17.8490    5.3030 C.3    406  DMS406      0.0000
      4 C2         22.0420  -15.4350    5.7120 C.3    406  DMS406      0.0000
      5 H          20.8377  -18.0695    6.3810 H      406  DMS406      0.0000
      6 H          21.5879  -18.1893    4.7349 H      406  DMS406      0.0000
      7 H          19.7992  -18.3840    4.9338 H      406  DMS406      0.0000
      8 H          22.1482  -15.7154    6.7799 H      406  DMS406      0.0000
      9 H          22.0575  -14.3297    5.6210 H      406  DMS406      0.0000
     10 H          22.8827  -15.8638    5.1291 H      406  DMS406      0.0000
@<TRIPOS>BOND
     1     1     2    2
     2     1     3    1
     3     1     4    1
     4     3     5    1
     5     3     6    1
     6     3     7    1
     7     4     8    1
     8     4     9    1
     9     4    10    1

