@<TRIPOS>MOLECULE
DMS_1_A_407
 10 9 0 0 0
SMALL
NO_CHARGES

@<TRIPOS>ATOM
      1 S          21.6540   14.4940    7.8600 S.o    407  DMS407      0.0000
      2 O          20.6400   14.1820    8.9180 O.2    407  DMS407      0.0000
      3 C1         21.0870   13.8630    6.2550 C.3    407  DMS407      0.0000
      4 C2         21.6920   16.2790    7.5100 C.3    407  DMS407      0.0000
      5 H          21.8208   14.1355    5.4692 H      407  DMS407      0.0000
      6 H          20.0974   14.2992    6.0086 H      407  DMS407      0.0000
      7 H          20.9996   12.7586    6.3067 H      407  DMS407      0.0000
      8 H          22.4106   16.4806    6.6894 H      407  DMS407      0.0000
      9 H          22.0146   16.8228    8.4212 H      407  DMS407      0.0000
     10 H          20.6804   16.6245    7.2138 H      407  DMS407      0.0000
@<TRIPOS>BOND
     1     1     2    2
     2     1     3    1
     3     1     4    1
     4     3     5    1
     5     3     6    1
     6     3     7    1
     7     4     8    1
     8     4     9    1
     9     4    10    1

