@<TRIPOS>MOLECULE
DMS_1_A_404
 10 9 0 0 0
SMALL
NO_CHARGES

@<TRIPOS>ATOM
      1 S           6.1600   -1.1030   -6.3650 S.o    404  DMS404      0.0000
      2 O           7.0750   -0.5940   -7.4230 O.2    404  DMS404      0.0000
      3 C1          5.9710   -2.8960   -6.5170 C.3    404  DMS404      0.0000
      4 C2          6.9610   -1.0070   -4.7330 C.3    404  DMS404      0.0000
      5 H           5.3279   -3.2728   -5.6956 H      404  DMS404      0.0000
      6 H           6.9656   -3.3845   -6.4654 H      404  DMS404      0.0000
      7 H           5.4958   -3.1334   -7.4907 H      404  DMS404      0.0000
      8 H           6.2879   -1.4378   -3.9638 H      404  DMS404      0.0000
      9 H           7.1648    0.0553   -4.4876 H      404  DMS404      0.0000
     10 H           7.9165   -1.5702   -4.7508 H      404  DMS404      0.0000
@<TRIPOS>BOND
     1     1     2    2
     2     1     3    1
     3     1     4    1
     4     3     5    1
     5     3     6    1
     6     3     7    1
     7     4     8    1
     8     4     9    1
     9     4    10    1

