DMS_1_A_601
  -ISIS-            3D

 10  9  0  0  0  0  0  0  0  0  1 V2000
    7.0020   12.8570   -5.9760 S   0  0  0  0  0
    6.7170   14.1060   -6.7530 O   0  0  0  0  0
    7.3800   13.3630   -4.3170 C   0  0  0  0  0
    5.4740   12.0440   -5.6710 C   0  0  0  0  0
    7.4954   12.4705   -3.6685 H   0  0  0  0  0
    6.5714   14.0083   -3.9172 H   0  0  0  0  0
    8.3316   13.9328   -4.3150 H   0  0  0  0  0
    5.6347   11.1788   -4.9956 H   0  0  0  0  0
    5.0554   11.6754   -6.6299 H   0  0  0  0  0
    4.7493   12.7438   -5.2072 H   0  0  0  0  0
  1  2  2  0  0  0
  1  3  1  0  0  0
  1  4  1  0  0  0
  3  5  1  0  0  0
  3  6  1  0  0  0
  3  7  1  0  0  0
  4  8  1  0  0  0
  4  9  1  0  0  0
  4 10  1  0  0  0
M  END
$$$$
