@<TRIPOS>MOLECULE
DMS_2_A_601
 10 9 0 0 0
SMALL
NO_CHARGES

@<TRIPOS>ATOM
      1 S          -7.0020   12.8570    5.9760 S.o    601  DMS601      0.0000
      2 O          -6.7170   14.1060    6.7530 O.2    601  DMS601      0.0000
      3 C1         -7.3800   13.3630    4.3170 C.3    601  DMS601      0.0000
      4 C2         -5.4740   12.0440    5.6710 C.3    601  DMS601      0.0000
      5 H          -7.4954   12.4705    3.6685 H      601  DMS601      0.0000
      6 H          -6.5714   14.0083    3.9172 H      601  DMS601      0.0000
      7 H          -8.3316   13.9328    4.3150 H      601  DMS601      0.0000
      8 H          -5.6347   11.1788    4.9956 H      601  DMS601      0.0000
      9 H          -5.0554   11.6754    6.6299 H      601  DMS601      0.0000
     10 H          -4.7493   12.7438    5.2072 H      601  DMS601      0.0000
@<TRIPOS>BOND
     1     1     2    2
     2     1     3    1
     3     1     4    1
     4     3     5    1
     5     3     6    1
     6     3     7    1
     7     4     8    1
     8     4     9    1
     9     4    10    1

