SV6_1_A_602
  -ISIS-            3D

104108  0  0  0  0  0  0  0  0  1 V2000
   11.9630   22.8680   26.2560 C   0  0  0  0  0
   12.2890   24.5890   27.6980 C   0  0  0  0  0
   12.6040   23.6920   28.6940 C   0  0  0  0  0
   11.5840   22.3710   24.8940 C   0  0  0  0  0
   12.2550   21.9650   27.2610 C   0  0  0  0  0
   11.6730   23.0930   23.9010 O   0  0  0  0  0
   11.9620   24.1890   26.4700 N   0  0  0  0  0
   12.5820   22.3700   28.4910 N   0  0  0  0  0
   11.1330   21.1140   24.8720 N   0  0  0  0  0
   10.9550   20.2710   23.7080 C   0  0  0  0  0
   10.0110   19.1540   24.1690 C   0  0  0  0  0
   10.1750   18.6500   25.2760 O   0  0  0  0  0
   12.3780   19.9000   23.2430 C   0  0  0  0  0
   12.8600   20.8530   22.1390 C   0  0  0  0  0
   13.9600   20.2360   21.2720 C   0  0  0  0  0
   14.8210   19.2730   22.0640 C   0  0  0  0  0
   14.0000   18.0820   22.5320 C   0  0  0  0  0
   12.5440   18.4370   22.8420 C   0  0  0  0  0
    9.0330   18.7670   23.3480 N   0  0  0  0  0
    8.2310   17.5960   23.6680 C   0  0  0  0  0
    6.7250   17.8960   23.7400 C   0  0  0  0  0
    6.4520   18.8920   24.8660 C   0  0  0  0  0
    5.9610   16.6090   24.0650 C   0  0  0  0  0
    6.1800   18.4810   22.4340 C   0  0  0  0  0
    8.6300   16.4100   22.7740 C   0  0  0  0  0
    8.3460   16.3390   21.5890 O   0  0  0  0  0
    8.2330   13.2550   22.7100 C   0  0  0  0  0
    9.2780   15.4030   23.3710 N   0  0  0  0  0
    7.6970   12.8480   23.7400 O   0  0  0  0  0
    9.5110   14.0980   22.7500 C   0  0  0  0  0
   10.6380   13.5010   23.6080 C   0  0  0  0  0
   10.5210   14.2010   24.9880 C   0  0  0  0  0
   12.0900   13.7680   23.1540 C   0  0  0  0  0
   12.5930   14.8590   24.0910 C   0  0  0  0  0
    9.7730   15.5000   24.7440 C   0  0  0  0  0
   11.9770   14.4590   25.3940 C   0  0  0  0  0
    5.2080    9.3920   22.1500 N   0  0  0  0  0
    7.7230   13.0320   21.4990 N   0  0  0  0  0
    6.4300   12.3630   21.2870 C   0  0  0  0  0
    6.6790   10.8970   20.9610 C   0  0  0  0  0
    5.6370   12.9810   20.1230 C   0  0  0  0  0
    5.3200   14.4690   20.1300 C   0  0  0  0  0
    5.1300   15.0190   18.6950 C   0  0  0  0  0
    5.3970   10.1070   21.0330 C   0  0  0  0  0
    4.0250    8.6020   22.3480 C   0  0  0  0  0
    3.6160    8.3050   23.7500 C   0  0  0  0  0
    2.8200    9.2630   22.9290 C   0  0  0  0  0
    7.6160   10.3050   21.8090 O   0  0  0  0  0
    4.6050   10.1150   20.0930 O   0  0  0  0  0
   12.3042   25.6725   27.9013 H   0  0  0  0  0
   12.8762   24.0550   29.6990 H   0  0  0  0  0
   12.2659   20.8761   27.1026 H   0  0  0  0  0
   10.9090   20.6372   25.7585 H   0  0  0  0  0
   10.4305   20.8405   22.9059 H   0  0  0  0  0
   13.0605   20.0370   24.1201 H   0  0  0  0  0
   13.2539   21.7863   22.6011 H   0  0  0  0  0
   12.0184   21.1559   21.4750 H   0  0  0  0  0
   14.5902   21.0443   20.8335 H   0  0  0  0  0
   13.5033   19.6964   20.4097 H   0  0  0  0  0
   15.2625   19.8039   22.9393 H   0  0  0  0  0
   15.6794   18.9217   21.4458 H   0  0  0  0  0
   14.4826   17.6453   23.4375 H   0  0  0  0  0
   14.0191   17.2804   21.7570 H   0  0  0  0  0
   11.9038   18.2257   21.9541 H   0  0  0  0  0
   12.1740   17.7898   23.6640 H   0  0  0  0  0
    8.8750   19.2544   22.4569 H   0  0  0  0  0
    8.4543   17.3036   24.7136 H   0  0  0  0  0
    5.3669   19.1169   24.9694 H   0  0  0  0  0
    6.9639   19.8654   24.6965 H   0  0  0  0  0
    6.7957   18.5144   25.8550 H   0  0  0  0  0
    4.8697   16.7924   24.1833 H   0  0  0  0  0
    6.3118   16.1402   25.0114 H   0  0  0  0  0
    6.0669   15.8426   23.2658 H   0  0  0  0  0
    5.0863   18.6777   22.4971 H   0  0  0  0  0
    6.3264   17.7981   21.5695 H   0  0  0  0  0
    6.6585   19.4493   22.1701 H   0  0  0  0  0
    9.8976   14.2202   21.7116 H   0  0  0  0  0
   10.4919   12.3994   23.7118 H   0  0  0  0  0
    9.9899   13.5591   25.7287 H   0  0  0  0  0
   12.1541   14.0778   22.0876 H   0  0  0  0  0
   12.7041   12.8453   23.2726 H   0  0  0  0  0
   12.2456   15.8515   23.7466 H   0  0  0  0  0
   13.7047   14.8837   24.1405 H   0  0  0  0  0
    8.9470   15.5579   25.4899 H   0  0  0  0  0
   10.4431   16.3703   24.8942 H   0  0  0  0  0
   12.4450   13.5290   25.7913 H   0  0  0  0  0
   12.0698   15.2474   26.1736 H   0  0  0  0  0
    5.9568    9.4453   22.8589 H   0  0  0  0  0
    8.2336   13.3695   20.6710 H   0  0  0  0  0
    5.8015   12.4336   22.2056 H   0  0  0  0  0
    7.0679   10.8329   19.9178 H   0  0  0  0  0
    4.6661   12.4491   20.0086 H   0  0  0  0  0
    6.2055   12.7690   19.1868 H   0  0  0  0  0
    6.1530   15.0284   20.6124 H   0  0  0  0  0
    4.4107   14.6651   20.7432 H   0  0  0  0  0
    4.8791   16.1035   18.7111 H   0  0  0  0  0
    4.3036   14.4964   18.1631 H   0  0  0  0  0
    6.0525   14.9044   18.0828 H   0  0  0  0  0
    3.8233    7.8056   21.6312 H   0  0  0  0  0
    4.2228    8.7469   24.5355 H   0  0  0  0  0
    3.1625    7.3316   23.9167 H   0  0  0  0  0
    1.8607    8.8998   22.5702 H   0  0  0  0  0
    2.9288   10.3132   23.1862 H   0  0  0  0  0
    7.9868    9.5404   21.3863 H   0  0  0  0  0
  1  4  1  0  0  0
  1  5  1  0  0  0
  1  7  2  0  0  0
  2  3  2  0  0  0
  2  7  1  0  0  0
  2 50  1  0  0  0
  3  8  1  0  0  0
  3 51  1  0  0  0
  4  6  2  0  0  0
  4  9  1  0  0  0
  5  8  2  0  0  0
  5 52  1  0  0  0
  9 10  1  0  0  0
  9 53  1  0  0  0
 10 11  1  0  0  0
 10 13  1  0  0  0
 10 54  1  0  0  0
 11 12  2  0  0  0
 11 19  1  0  0  0
 13 14  1  0  0  0
 13 18  1  0  0  0
 13 55  1  0  0  0
 14 15  1  0  0  0
 14 56  1  0  0  0
 14 57  1  0  0  0
 15 16  1  0  0  0
 15 58  1  0  0  0
 15 59  1  0  0  0
 16 17  1  0  0  0
 16 60  1  0  0  0
 16 61  1  0  0  0
 17 18  1  0  0  0
 17 62  1  0  0  0
 17 63  1  0  0  0
 18 64  1  0  0  0
 18 65  1  0  0  0
 19 20  1  0  0  0
 19 66  1  0  0  0
 20 21  1  0  0  0
 20 25  1  0  0  0
 20 67  1  0  0  0
 21 22  1  0  0  0
 21 23  1  0  0  0
 21 24  1  0  0  0
 22 68  1  0  0  0
 22 69  1  0  0  0
 22 70  1  0  0  0
 23 71  1  0  0  0
 23 72  1  0  0  0
 23 73  1  0  0  0
 24 74  1  0  0  0
 24 75  1  0  0  0
 24 76  1  0  0  0
 25 26  2  0  0  0
 25 28  1  0  0  0
 27 29  2  0  0  0
 27 30  1  0  0  0
 27 38  1  0  0  0
 28 30  1  0  0  0
 28 35  1  0  0  0
 30 31  1  0  0  0
 30 77  1  0  0  0
 31 32  1  0  0  0
 31 33  1  0  0  0
 31 78  1  0  0  0
 32 35  1  0  0  0
 32 36  1  0  0  0
 32 79  1  0  0  0
 33 34  1  0  0  0
 33 80  1  0  0  0
 33 81  1  0  0  0
 34 36  1  0  0  0
 34 82  1  0  0  0
 34 83  1  0  0  0
 35 84  1  0  0  0
 35 85  1  0  0  0
 36 86  1  0  0  0
 36 87  1  0  0  0
 37 44  1  0  0  0
 37 45  1  0  0  0
 37 88  1  0  0  0
 38 39  1  0  0  0
 38 89  1  0  0  0
 39 40  1  0  0  0
 39 41  1  0  0  0
 39 90  1  0  0  0
 40 44  1  0  0  0
 40 48  1  0  0  0
 40 91  1  0  0  0
 41 42  1  0  0  0
 41 92  1  0  0  0
 41 93  1  0  0  0
 42 43  1  0  0  0
 42 94  1  0  0  0
 42 95  1  0  0  0
 43 96  1  0  0  0
 43 97  1  0  0  0
 43 98  1  0  0  0
 44 49  2  0  0  0
 45 46  1  0  0  0
 45 47  1  0  0  0
 45 99  1  0  0  0
 46 47  1  0  0  0
 46100  1  0  0  0
 46101  1  0  0  0
 47102  1  0  0  0
 47103  1  0  0  0
 48104  1  0  0  0
M  END
$$$$
