@<TRIPOS>MOLECULE
DMS_1_A_502
 10 9 0 0 0
SMALL
NO_CHARGES

@<TRIPOS>ATOM
      1 S          -4.2680   14.3280    0.4440 S.o    502  DMS502      0.0000
      2 O          -4.6840   14.9180   -0.8290 O.2    502  DMS502      0.0000
      3 C1         -3.7360   15.7160    1.3620 C.3    502  DMS502      0.0000
      4 C2         -5.7200   14.0410    1.3730 C.3    502  DMS502      0.0000
      5 H          -3.5343   15.4234    2.4128 H      502  DMS502      0.0000
      6 H          -4.5006   16.5198    1.3456 H      502  DMS502      0.0000
      7 H          -2.7969   16.1099    0.9219 H      502  DMS502      0.0000
      8 H          -5.4582   13.7741    2.4174 H      502  DMS502      0.0000
      9 H          -6.2806   13.1956    0.9240 H      502  DMS502      0.0000
     10 H          -6.3724   14.9383    1.3746 H      502  DMS502      0.0000
@<TRIPOS>BOND
     1     1     2    2
     2     1     3    1
     3     1     4    1
     4     3     5    1
     5     3     6    1
     6     3     7    1
     7     4     8    1
     8     4     9    1
     9     4    10    1

