DMS_1_A_502
  -ISIS-            3D

 10  9  0  0  0  0  0  0  0  0  1 V2000
   -4.2680   14.3280    0.4440 S   0  0  0  0  0
   -4.6840   14.9180   -0.8290 O   0  0  0  0  0
   -3.7360   15.7160    1.3620 C   0  0  0  0  0
   -5.7200   14.0410    1.3730 C   0  0  0  0  0
   -3.5343   15.4234    2.4128 H   0  0  0  0  0
   -4.5006   16.5198    1.3456 H   0  0  0  0  0
   -2.7969   16.1099    0.9219 H   0  0  0  0  0
   -5.4582   13.7741    2.4174 H   0  0  0  0  0
   -6.2806   13.1956    0.9240 H   0  0  0  0  0
   -6.3724   14.9383    1.3746 H   0  0  0  0  0
  1  2  2  0  0  0
  1  3  1  0  0  0
  1  4  1  0  0  0
  3  5  1  0  0  0
  3  6  1  0  0  0
  3  7  1  0  0  0
  4  8  1  0  0  0
  4  9  1  0  0  0
  4 10  1  0  0  0
M  END
$$$$
