EDO_1_E_611
  -ISIS-            3D

 10  9  0  0  0  0  0  0  0  0  1 V2000
   64.6220   18.4230   41.9570 C   0  0  0  0  0
   65.7920   18.4440   41.1400 O   0  0  0  0  0
   64.2000   17.0650   42.3900 C   0  0  0  0  0
   65.0990   16.5000   43.3380 O   0  0  0  0  0
   63.7925   18.8947   41.3865 H   0  0  0  0  0
   64.7899   19.0655   42.8480 H   0  0  0  0  0
   65.9838   19.3446   40.9147 H   0  0  0  0  0
   64.1104   16.3859   41.5159 H   0  0  0  0  0
   63.1937   17.1108   42.8570 H   0  0  0  0  0
   65.9614   16.5156   42.9412 H   0  0  0  0  0
  1  2  1  0  0  0
  1  3  1  0  0  0
  1  5  1  0  0  0
  1  6  1  0  0  0
  2  7  1  0  0  0
  3  4  1  0  0  0
  3  8  1  0  0  0
  3  9  1  0  0  0
  4 10  1  0  0  0
M  END
$$$$
