@<TRIPOS>MOLECULE
EDO_1_E_604
 10 9 0 0 0
SMALL
NO_CHARGES

@<TRIPOS>ATOM
      1 C1         70.3160   23.2140   27.7820 C.3    604  EDO604      0.0000
      2 O1         71.2360   24.2040   28.1550 O.3    604  EDO604      0.0000
      3 C2         70.1630   23.1010   26.3270 C.3    604  EDO604      0.0000
      4 O2         69.7730   21.8040   25.9320 O.3    604  EDO604      0.0000
      5 H          69.3371   23.3960   28.2742 H      604  EDO604      0.0000
      6 H          70.6885   22.2532   28.1961 H      604  EDO604      0.0000
      7 H          70.8264   25.0536   28.0560 H      604  EDO604      0.0000
      8 H          71.1161   23.3541   25.8142 H      604  EDO604      0.0000
      9 H          69.4126   23.8307   25.9581 H      604  EDO604      0.0000
     10 H          70.5299   21.2337   25.9672 H      604  EDO604      0.0000
@<TRIPOS>BOND
     1     1     2    1
     2     1     3    1
     3     1     5    1
     4     1     6    1
     5     2     7    1
     6     3     4    1
     7     3     8    1
     8     3     9    1
     9     4    10    1

