@<TRIPOS>MOLECULE
EDO_1_E_613
 10 9 0 0 0
SMALL
NO_CHARGES

@<TRIPOS>ATOM
      1 C1         75.7920   12.3170   31.1740 C.3    613  EDO613      0.0000
      2 O1         75.9880   13.6980   30.9550 O.3    613  EDO613      0.0000
      3 C2         74.4970   12.0170   31.8260 C.3    613  EDO613      0.0000
      4 O2         73.9760   10.7420   31.5030 O.3    613  EDO613      0.0000
      5 H          76.6308   11.9094   31.7774 H      613  EDO613      0.0000
      6 H          75.8342   11.8029   30.1893 H      613  EDO613      0.0000
      7 H          76.8159   13.8170   30.5084 H      613  EDO613      0.0000
      8 H          73.7489   12.7784   31.5148 H      613  EDO613      0.0000
      9 H          74.5943   12.1108   32.9287 H      613  EDO613      0.0000
     10 H          73.1352   10.6440   31.9301 H      613  EDO613      0.0000
@<TRIPOS>BOND
     1     1     2    1
     2     1     3    1
     3     1     5    1
     4     1     6    1
     5     2     7    1
     6     3     4    1
     7     3     8    1
     8     3     9    1
     9     4    10    1

