@<TRIPOS>MOLECULE
EDO_1_E_612
 10 9 0 0 0
SMALL
NO_CHARGES

@<TRIPOS>ATOM
      1 C1         57.0710   17.3040   44.8290 C.3    612  EDO612      0.0000
      2 O1         56.4190   16.4190   45.7090 O.3    612  EDO612      0.0000
      3 C2         57.2600   18.6660   45.3780 C.3    612  EDO612      0.0000
      4 O2         57.3140   19.6500   44.3650 O.3    612  EDO612      0.0000
      5 H          56.4500   17.3591   43.9098 H      612  EDO612      0.0000
      6 H          58.0426   16.8712   44.5088 H      612  EDO612      0.0000
      7 H          57.0295   16.1628   46.3882 H      612  EDO612      0.0000
      8 H          58.1923   18.7147   45.9781 H      612  EDO612      0.0000
      9 H          56.4312   18.9196   46.0738 H      612  EDO612      0.0000
     10 H          56.4328   19.8222   44.0609 H      612  EDO612      0.0000
@<TRIPOS>BOND
     1     1     2    1
     2     1     3    1
     3     1     5    1
     4     1     6    1
     5     2     7    1
     6     3     4    1
     7     3     8    1
     8     3     9    1
     9     4    10    1

