@<TRIPOS>MOLECULE
EDO_1_E_607
 10 9 0 0 0
SMALL
NO_CHARGES

@<TRIPOS>ATOM
      1 C1         72.3080   24.0950   31.6490 C.3    607  EDO607      0.0000
      2 O1         72.6640   25.1960   32.4990 O.3    607  EDO607      0.0000
      3 C2         73.3580   23.0690   31.3980 C.3    607  EDO607      0.0000
      4 O2         73.5560   22.1230   32.4400 O.3    607  EDO607      0.0000
      5 H          71.9894   24.5211   30.6724 H      607  EDO607      0.0000
      6 H          71.4076   23.5948   32.0667 H      607  EDO607      0.0000
      7 H          71.8763   25.6817   32.7056 H      607  EDO607      0.0000
      8 H          74.3210   23.5793   31.1808 H      607  EDO607      0.0000
      9 H          73.0962   22.5047   30.4763 H      607  EDO607      0.0000
     10 H          74.3298   21.6124   32.2410 H      607  EDO607      0.0000
@<TRIPOS>BOND
     1     1     2    1
     2     1     3    1
     3     1     5    1
     4     1     6    1
     5     2     7    1
     6     3     4    1
     7     3     8    1
     8     3     9    1
     9     4    10    1

