@<TRIPOS>MOLECULE
EDO_1_E_603
 10 9 0 0 0
SMALL
NO_CHARGES

@<TRIPOS>ATOM
      1 C1         66.7810   22.9500   21.4420 C.3    603  EDO603      0.0000
      2 O1         67.2010   24.2620   21.7800 O.3    603  EDO603      0.0000
      3 C2         67.1940   22.4380   20.1000 C.3    603  EDO603      0.0000
      4 O2         67.5000   21.0490   20.0990 O.3    603  EDO603      0.0000
      5 H          65.6749   22.8891   21.5320 H      603  EDO603      0.0000
      6 H          67.1802   22.2656   22.2220 H      603  EDO603      0.0000
      7 H          66.8438   24.4849   22.6298 H      603  EDO603      0.0000
      8 H          68.0850   22.9973   19.7420 H      603  EDO603      0.0000
      9 H          66.3948   22.6295   19.3543 H      603  EDO603      0.0000
     10 H          68.3788   20.9348   20.4361 H      603  EDO603      0.0000
@<TRIPOS>BOND
     1     1     2    1
     2     1     3    1
     3     1     5    1
     4     1     6    1
     5     2     7    1
     6     3     4    1
     7     3     8    1
     8     3     9    1
     9     4    10    1

