EDO_1_E_606
  -ISIS-            3D

 10  9  0  0  0  0  0  0  0  0  1 V2000
   51.8860   -2.9210   27.8830 C   0  0  0  0  0
   52.5400   -4.1880   27.9690 O   0  0  0  0  0
   51.6780   -2.2610   29.2070 C   0  0  0  0  0
   50.3130   -2.0240   29.5530 O   0  0  0  0  0
   50.9081   -3.0596   27.3742 H   0  0  0  0  0
   52.4844   -2.2573   27.2226 H   0  0  0  0  0
   52.5602   -4.5765   27.1044 H   0  0  0  0  0
   52.2308   -1.2976   29.2447 H   0  0  0  0  0
   52.1237   -2.8869   30.0081 H   0  0  0  0  0
   50.0036   -1.2724   29.0643 H   0  0  0  0  0
  1  2  1  0  0  0
  1  3  1  0  0  0
  1  5  1  0  0  0
  1  6  1  0  0  0
  2  7  1  0  0  0
  3  4  1  0  0  0
  3  8  1  0  0  0
  3  9  1  0  0  0
  4 10  1  0  0  0
M  END
$$$$
