EDO_1_E_608
  -ISIS-            3D

 10  9  0  0  0  0  0  0  0  0  1 V2000
   52.7830   28.7120   39.9750 C   0  0  0  0  0
   51.4610   29.0160   40.3680 O   0  0  0  0  0
   53.0940   29.1050   38.5850 C   0  0  0  0  0
   53.0780   30.5030   38.3620 O   0  0  0  0  0
   52.9320   27.6186   40.0979 H   0  0  0  0  0
   53.4895   29.1985   40.6805 H   0  0  0  0  0
   51.2836   29.9045   40.0835 H   0  0  0  0  0
   52.3632   28.6363   37.8929 H   0  0  0  0  0
   54.0882   28.7044   38.2899 H   0  0  0  0  0
   53.8956   30.8703   38.6714 H   0  0  0  0  0
  1  2  1  0  0  0
  1  3  1  0  0  0
  1  5  1  0  0  0
  1  6  1  0  0  0
  2  7  1  0  0  0
  3  4  1  0  0  0
  3  8  1  0  0  0
  3  9  1  0  0  0
  4 10  1  0  0  0
M  END
$$$$
