@<TRIPOS>MOLECULE
EDO_1_E_602
 10 9 0 0 0
SMALL
NO_CHARGES

@<TRIPOS>ATOM
      1 C1         58.6750   22.9950   22.3690 C.3    602  EDO602      0.0000
      2 O1         57.7800   22.8510   21.3210 O.3    602  EDO602      0.0000
      3 C2         60.0910   23.0740   21.9090 C.3    602  EDO602      0.0000
      4 O2         60.4530   24.4060   21.5680 O.3    602  EDO602      0.0000
      5 H          58.5589   22.1205   23.0455 H      602  EDO602      0.0000
      6 H          58.4160   23.8921   22.9709 H      602  EDO602      0.0000
      7 H          56.8973   22.9299   21.6579 H      602  EDO602      0.0000
      8 H          60.2593   22.3990   21.0431 H      602  EDO602      0.0000
      9 H          60.7677   22.7281   22.7199 H      602  EDO602      0.0000
     10 H          61.2997   24.3866   21.1413 H      602  EDO602      0.0000
@<TRIPOS>BOND
     1     1     2    1
     2     1     3    1
     3     1     5    1
     4     1     6    1
     5     2     7    1
     6     3     4    1
     7     3     8    1
     8     3     9    1
     9     4    10    1

