EDO_1_E_605
  -ISIS-            3D

 10  9  0  0  0  0  0  0  0  0  1 V2000
   49.3630   18.1330   26.8050 C   0  0  0  0  0
   49.8470   19.2070   26.0080 O   0  0  0  0  0
   47.8930   18.1920   27.0520 C   0  0  0  0  0
   47.5190   19.0550   28.1070 O   0  0  0  0  0
   49.9224   18.1182   27.7630 H   0  0  0  0  0
   49.6167   17.1804   26.2914 H   0  0  0  0  0
   49.4471   19.1579   25.1498 H   0  0  0  0  0
   47.5182   17.1734   27.2924 H   0  0  0  0  0
   47.3542   18.4995   26.1321 H   0  0  0  0  0
   47.9069   18.7429   28.9138 H   0  0  0  0  0
  1  2  1  0  0  0
  1  3  1  0  0  0
  1  5  1  0  0  0
  1  6  1  0  0  0
  2  7  1  0  0  0
  3  4  1  0  0  0
  3  8  1  0  0  0
  3  9  1  0  0  0
  4 10  1  0  0  0
M  END
$$$$
