@<TRIPOS>MOLECULE
DMS_1_A_402
 10 9 0 0 0
SMALL
NO_CHARGES

@<TRIPOS>ATOM
      1 S          -1.5460    9.4180   -7.0520 S.o    402  DMS402      0.0000
      2 O          -0.3880    8.5970   -6.5160 O.2    402  DMS402      0.0000
      3 C1         -1.0850   11.0310   -6.6000 C.3    402  DMS402      0.0000
      4 C2         -1.1090    9.5760   -8.7580 C.3    402  DMS402      0.0000
      5 H          -1.7251   11.7702   -7.1230 H      402  DMS402      0.0000
      6 H          -0.0221   11.2277   -6.8479 H      402  DMS402      0.0000
      7 H          -1.2235   11.1600   -5.5066 H      402  DMS402      0.0000
      8 H          -1.7482   10.3421   -9.2429 H      402  DMS402      0.0000
      9 H          -1.2738    8.6046   -9.2687 H      402  DMS402      0.0000
     10 H          -0.0435    9.8614   -8.8697 H      402  DMS402      0.0000
@<TRIPOS>BOND
     1     1     2    2
     2     1     3    1
     3     1     4    1
     4     3     5    1
     5     3     6    1
     6     3     7    1
     7     4     8    1
     8     4     9    1
     9     4    10    1

