DMS_1_A_402
  -ISIS-            3D

 10  9  0  0  0  0  0  0  0  0  1 V2000
   -1.5460    9.4180   -7.0520 S   0  0  0  0  0
   -0.3880    8.5970   -6.5160 O   0  0  0  0  0
   -1.0850   11.0310   -6.6000 C   0  0  0  0  0
   -1.1090    9.5760   -8.7580 C   0  0  0  0  0
   -1.7251   11.7702   -7.1230 H   0  0  0  0  0
   -0.0221   11.2277   -6.8479 H   0  0  0  0  0
   -1.2235   11.1600   -5.5066 H   0  0  0  0  0
   -1.7482   10.3421   -9.2429 H   0  0  0  0  0
   -1.2738    8.6046   -9.2687 H   0  0  0  0  0
   -0.0435    9.8614   -8.8697 H   0  0  0  0  0
  1  2  2  0  0  0
  1  3  1  0  0  0
  1  4  1  0  0  0
  3  5  1  0  0  0
  3  6  1  0  0  0
  3  7  1  0  0  0
  4  8  1  0  0  0
  4  9  1  0  0  0
  4 10  1  0  0  0
M  END
$$$$
