NNA_1_A_401
  -ISIS-            3D

112115  0  0  0  0  0  0  0  0  1 V2000
  -16.9080    3.5540   -0.1840 C   0  0  0  0  0
  -17.3150    3.2230   -1.3120 O   0  0  0  0  0
  -17.6280    4.3030    0.6790 N   0  0  0  0  0
  -18.9670    4.8740    0.4310 C   0  0  0  0  0
  -19.9900    3.7510    0.1890 C   0  0  0  0  0
  -19.4190    5.7010    1.6460 C   0  0  0  0  0
  -20.2400    2.9050    1.4280 C   0  0  0  0  0
  -19.6740    4.8440    2.8780 C   0  0  0  0  0
  -20.6980    3.7680    2.5860 C   0  0  0  0  0
  -18.9070    5.7810   -0.8220 C   0  0  0  0  0
  -17.8200    7.1890   -0.7870 S   0  0  0  0  0
  -16.5700    6.8020   -0.2040 O   0  0  0  0  0
  -18.5310    8.3110   -0.2500 O   0  0  0  0  0
  -17.4710    7.6060   -2.5020 C   0  0  0  0  0
  -18.7380    8.1700   -3.1370 C   0  0  0  0  0
  -17.0550    6.3360   -3.2350 C   0  0  0  0  0
  -16.3550    8.6400   -2.5580 C   0  0  0  0  0
  -15.6930    3.1710    0.2660 N   0  0  0  0  0
  -14.8940    2.2090   -0.4750 C   0  0  0  0  0
  -13.4750    2.7140   -0.7880 C   0  0  0  0  0
  -13.5470    3.9180   -1.7310 C   0  0  0  0  0
  -12.7410    3.1410    0.4860 C   0  0  0  0  0
  -12.6680    1.6090   -1.4760 C   0  0  0  0  0
  -14.9240    0.8710    0.2630 C   0  0  0  0  0
  -14.4130    0.7300    1.3700 O   0  0  0  0  0
  -15.5620   -0.1460   -0.3370 N   0  0  0  0  0
  -16.2170   -0.0890   -1.6510 C   0  0  0  0  0
  -15.6310   -1.4570    0.3080 C   0  0  0  0  0
  -16.6730   -2.2140   -0.4950 C   0  0  0  0  0
  -16.9610   -1.4060   -1.7460 C   0  0  0  0  0
  -18.0600   -1.6710   -0.7540 C   0  0  0  0  0
  -19.1420   -2.6530   -1.1480 C   0  0  0  0  0
  -18.5770   -0.5680    0.1440 C   0  0  0  0  0
  -14.2850   -2.1710    0.2270 C   0  0  0  0  0
  -13.7660   -2.4150   -0.8610 O   0  0  0  0  0
  -13.7180   -2.4770    1.3940 N   0  0  0  0  0
  -12.3400   -2.9830    1.4830 C   0  0  0  0  0
  -11.4540   -1.9620    2.2010 C   0  0  0  0  0
  -11.3990   -0.6190    1.5100 C   0  0  0  0  0
  -10.7170    0.4370    2.3440 C   0  0  0  0  0
   -9.3060    0.0880    2.7520 C   0  0  0  0  0
  -13.2890   -5.2160    1.6560 O   0  0  0  0  0
  -12.2820   -4.3560    2.1790 C   0  0  0  0  0
  -10.1180   -4.9710    2.9490 O   0  0  0  0  0
  -10.6480   -5.4980    0.8110 N   0  0  0  0  0
   -9.3820   -6.1190    0.5280 C   0  0  0  0  0
   -8.4550   -5.4050   -0.3910 C   0  0  0  0  0
   -9.1550   -6.6340   -0.8490 C   0  0  0  0  0
  -10.9180   -4.9710    2.0090 C   0  0  0  0  0
  -17.1909    4.5207    1.5834 H   0  0  0  0  0
  -19.6692    3.0939   -0.6499 H   0  0  0  0  0
  -20.9584    4.1995   -0.1344 H   0  0  0  0  0
  -20.3531    6.2548    1.3932 H   0  0  0  0  0
  -18.6574    6.4742    1.8968 H   0  0  0  0  0
  -19.3127    2.3530    1.7061 H   0  0  0  0  0
  -21.0114    2.1313    1.2060 H   0  0  0  0  0
  -20.0373    5.4892    3.7117 H   0  0  0  0  0
  -18.7262    4.3813    3.2357 H   0  0  0  0  0
  -20.8527    3.1360    3.4912 H   0  0  0  0  0
  -21.6840    4.2316    2.3508 H   0  0  0  0  0
  -19.9162    6.1811   -1.0541 H   0  0  0  0  0
  -18.6318    5.1634   -1.6921 H   0  0  0  0  0
  -18.5758    8.4186   -4.2086 H   0  0  0  0  0
  -19.0813    9.1079   -2.6488 H   0  0  0  0  0
  -19.5891    7.4560   -3.1082 H   0  0  0  0  0
  -16.6670    6.5780   -4.2486 H   0  0  0  0  0
  -17.8853    5.6225   -3.4113 H   0  0  0  0  0
  -16.2375    5.7867   -2.7194 H   0  0  0  0  0
  -16.1293    8.9432   -3.6036 H   0  0  0  0  0
  -15.4030    8.2598   -2.1275 H   0  0  0  0  0
  -16.6136    9.5707   -2.0071 H   0  0  0  0  0
  -15.3434    3.5109    1.1706 H   0  0  0  0  0
  -15.3465    2.0552   -1.4774 H   0  0  0  0  0
  -12.5358    4.3040   -1.9902 H   0  0  0  0  0
  -14.1091    4.7672   -1.2824 H   0  0  0  0  0
  -14.0517    3.6676   -2.6908 H   0  0  0  0  0
  -11.6880    3.4312    0.2719 H   0  0  0  0  0
  -12.6972    2.3397    1.2505 H   0  0  0  0  0
  -13.2113    4.0241    0.9711 H   0  0  0  0  0
  -11.6419    1.9488   -1.7411 H   0  0  0  0  0
  -13.1479    1.2730   -2.4221 H   0  0  0  0  0
  -12.5481    0.7075   -0.8392 H   0  0  0  0  0
  -15.4667   -0.0360   -2.4727 H   0  0  0  0  0
  -16.9378    0.7481   -1.7690 H   0  0  0  0  0
  -15.9816   -1.3866    1.3632 H   0  0  0  0  0
  -16.5531   -3.2909   -0.5924 H   0  0  0  0  0
  -17.0196   -1.9139   -2.7050 H   0  0  0  0  0
  -19.9561   -2.1396   -1.7059 H   0  0  0  0  0
  -19.5887   -3.1314   -0.2485 H   0  0  0  0  0
  -18.7490   -3.4645   -1.7992 H   0  0  0  0  0
  -19.3699    0.0146   -0.3754 H   0  0  0  0  0
  -17.8053    0.1567    0.4718 H   0  0  0  0  0
  -19.0271   -0.9975    1.0662 H   0  0  0  0  0
  -14.2390   -2.3224    2.2679 H   0  0  0  0  0
  -11.9199   -3.1143    0.4581 H   0  0  0  0  0
  -10.4219   -2.3708    2.2856 H   0  0  0  0  0
  -11.8309   -1.8276    3.2417 H   0  0  0  0  0
  -12.4247   -0.2785    1.2709 H   0  0  0  0  0
  -10.8711   -0.7261    0.5339 H   0  0  0  0  0
  -11.3235    0.6467    3.2558 H   0  0  0  0  0
  -10.6873    1.3895    1.7663 H   0  0  0  0  0
   -8.8112    0.9441    3.2639 H   0  0  0  0  0
   -8.6735   -0.1737    1.8742 H   0  0  0  0  0
   -9.2678   -0.7686    3.4604 H   0  0  0  0  0
  -13.2865   -6.0252    2.1507 H   0  0  0  0  0
  -12.4782   -4.2054    3.2655 H   0  0  0  0  0
  -11.4006   -5.4555    0.1072 H   0  0  0  0  0
   -8.9070   -6.7009    1.3181 H   0  0  0  0  0
   -7.3957   -5.5126   -0.1740 H   0  0  0  0  0
   -8.8187   -4.4681   -0.8042 H   0  0  0  0  0
   -9.9594   -6.4827   -1.5634 H   0  0  0  0  0
   -8.5429   -7.5286   -0.9271 H   0  0  0  0  0
  1  2  2  0  0  0
  1  3  1  0  0  0
  1 18  1  0  0  0
  3  4  1  0  0  0
  3 50  1  0  0  0
  4  5  1  0  0  0
  4  6  1  0  0  0
  4 10  1  0  0  0
  5  7  1  0  0  0
  5 51  1  0  0  0
  5 52  1  0  0  0
  6  8  1  0  0  0
  6 53  1  0  0  0
  6 54  1  0  0  0
  7  9  1  0  0  0
  7 55  1  0  0  0
  7 56  1  0  0  0
  8  9  1  0  0  0
  8 57  1  0  0  0
  8 58  1  0  0  0
  9 59  1  0  0  0
  9 60  1  0  0  0
 10 11  1  0  0  0
 10 61  1  0  0  0
 10 62  1  0  0  0
 11 12  2  0  0  0
 11 13  2  0  0  0
 11 14  1  0  0  0
 14 15  1  0  0  0
 14 16  1  0  0  0
 14 17  1  0  0  0
 15 63  1  0  0  0
 15 64  1  0  0  0
 15 65  1  0  0  0
 16 66  1  0  0  0
 16 67  1  0  0  0
 16 68  1  0  0  0
 17 69  1  0  0  0
 17 70  1  0  0  0
 17 71  1  0  0  0
 18 19  1  0  0  0
 18 72  1  0  0  0
 19 20  1  0  0  0
 19 24  1  0  0  0
 19 73  1  0  0  0
 20 21  1  0  0  0
 20 22  1  0  0  0
 20 23  1  0  0  0
 21 74  1  0  0  0
 21 75  1  0  0  0
 21 76  1  0  0  0
 22 77  1  0  0  0
 22 78  1  0  0  0
 22 79  1  0  0  0
 23 80  1  0  0  0
 23 81  1  0  0  0
 23 82  1  0  0  0
 24 25  2  0  0  0
 24 26  1  0  0  0
 26 27  1  0  0  0
 26 28  1  0  0  0
 27 30  1  0  0  0
 27 83  1  0  0  0
 27 84  1  0  0  0
 28 29  1  0  0  0
 28 34  1  0  0  0
 28 85  1  0  0  0
 29 30  1  0  0  0
 29 31  1  0  0  0
 29 86  1  0  0  0
 30 31  1  0  0  0
 30 87  1  0  0  0
 31 32  1  0  0  0
 31 33  1  0  0  0
 32 88  1  0  0  0
 32 89  1  0  0  0
 32 90  1  0  0  0
 33 91  1  0  0  0
 33 92  1  0  0  0
 33 93  1  0  0  0
 34 35  2  0  0  0
 34 36  1  0  0  0
 36 37  1  0  0  0
 36 94  1  0  0  0
 37 38  1  0  0  0
 37 43  1  0  0  0
 37 95  1  0  0  0
 38 39  1  0  0  0
 38 96  1  0  0  0
 38 97  1  0  0  0
 39 40  1  0  0  0
 39 98  1  0  0  0
 39 99  1  0  0  0
 40 41  1  0  0  0
 40100  1  0  0  0
 40101  1  0  0  0
 41102  1  0  0  0
 41103  1  0  0  0
 41104  1  0  0  0
 42 43  1  0  0  0
 42105  1  0  0  0
 43 49  1  0  0  0
 43106  1  0  0  0
 44 49  2  0  0  0
 45 46  1  0  0  0
 45 49  1  0  0  0
 45107  1  0  0  0
 46 47  1  0  0  0
 46 48  1  0  0  0
 46108  1  0  0  0
 47 48  1  0  0  0
 47109  1  0  0  0
 47110  1  0  0  0
 48111  1  0  0  0
 48112  1  0  0  0
M  END
$$$$
