@<TRIPOS>MOLECULE
DMS_1_A_406
 10 9 0 0 0
SMALL
NO_CHARGES

@<TRIPOS>ATOM
      1 S          25.4020  -31.3740   19.3820 S.o    406  DMS406      0.0000
      2 O          24.2040  -30.7700   18.7210 O.2    406  DMS406      0.0000
      3 C1         25.5870  -30.5550   20.9480 C.3    406  DMS406      0.0000
      4 C2         24.8750  -32.9410   19.9950 C.3    406  DMS406      0.0000
      5 H          26.3724  -31.0601   21.5467 H      406  DMS406      0.0000
      6 H          24.6291  -30.5683   21.5074 H      406  DMS406      0.0000
      7 H          25.8899  -29.5019   20.7765 H      406  DMS406      0.0000
      8 H          25.6743  -33.3904   20.6194 H      406  DMS406      0.0000
      9 H          24.6669  -33.6181   19.1416 H      406  DMS406      0.0000
     10 H          23.9518  -32.8312   20.6004 H      406  DMS406      0.0000
@<TRIPOS>BOND
     1     1     2    2
     2     1     3    1
     3     1     4    1
     4     3     5    1
     5     3     6    1
     6     3     7    1
     7     4     8    1
     8     4     9    1
     9     4    10    1

