@<TRIPOS>MOLECULE
DMS_2_A_405
 10 9 0 0 0
SMALL
NO_CHARGES

@<TRIPOS>ATOM
      1 S          -2.4410  -45.6780   -8.2930 S.o    405  DMS405      0.0000
      2 O          -2.3410  -46.9830   -7.5220 O.2    405  DMS405      0.0000
      3 C1         -2.4290  -46.1690  -10.0060 C.3    405  DMS405      0.0000
      4 C2         -0.7940  -45.0020   -8.2460 C.3    405  DMS405      0.0000
      5 H          -2.3221  -45.2742  -10.6527 H      405  DMS405      0.0000
      6 H          -3.3867  -46.6733  -10.2485 H      405  DMS405      0.0000
      7 H          -1.5918  -46.8697  -10.2028 H      405  DMS405      0.0000
      8 H          -0.7244  -44.1336   -8.9325 H      405  DMS405      0.0000
      9 H          -0.0509  -45.7697   -8.5443 H      405  DMS405      0.0000
     10 H          -0.5676  -44.6618   -7.2148 H      405  DMS405      0.0000
@<TRIPOS>BOND
     1     1     2    2
     2     1     3    1
     3     1     4    1
     4     3     5    1
     5     3     6    1
     6     3     7    1
     7     4     8    1
     8     4     9    1
     9     4    10    1

