DMS_1_A_402
  -ISIS-            3D

 10  9  0  0  0  0  0  0  0  0  1 V2000
    7.0600  -55.0850   21.7920 S   0  0  0  0  0
    7.8080  -54.2310   22.7330 O   0  0  0  0  0
    5.9670  -54.0350   20.9220 C   0  0  0  0  0
    5.8520  -55.8720   22.8500 C   0  0  0  0  0
    5.2470  -54.6412   20.3352 H   0  0  0  0  0
    6.5464  -53.3974   20.2234 H   0  0  0  0  0
    5.4098  -53.3817   21.6247 H   0  0  0  0  0
    5.1221  -56.4340   22.2322 H   0  0  0  0  0
    5.3154  -55.1141   23.4574 H   0  0  0  0  0
    6.3668  -56.5819   23.5293 H   0  0  0  0  0
  1  2  2  0  0  0
  1  3  1  0  0  0
  1  4  1  0  0  0
  3  5  1  0  0  0
  3  6  1  0  0  0
  3  7  1  0  0  0
  4  8  1  0  0  0
  4  9  1  0  0  0
  4 10  1  0  0  0
M  END
$$$$
