AZP_1_A_307
  -ISIS-            3D

 89 90  0  0  0  0  0  0  0  0  1 V2000
   67.5670   20.8850   49.0400 N   0  0  0  0  0
   66.8610   20.5660   47.9450 C   0  0  0  0  0
   66.2460   21.6740   47.2480 O   0  0  0  0  0
   64.9580   21.1780   46.8260 C   0  0  0  0  0
   63.8760   22.2510   46.7550 C   0  0  0  0  0
   62.8880   22.3270   47.7510 C   0  0  0  0  0
   61.9090   23.3250   47.6550 C   0  0  0  0  0
   61.9000   24.2350   46.5960 C   0  0  0  0  0
   62.8770   24.1610   45.6030 C   0  0  0  0  0
   63.8530   23.1560   45.6890 C   0  0  0  0  0
   66.7040   19.4230   47.5140 O   0  0  0  0  0
   68.3570   19.9180   49.8230 C   0  0  0  0  0
   69.8090   20.3700   49.9570 C   0  0  0  0  0
   70.5300   20.6040   48.6290 C   0  0  0  0  0
   71.8230   21.3710   48.9470 C   0  0  0  0  0
   70.8600   19.2570   48.0120 C   0  0  0  0  0
   67.8620   19.8130   51.2280 C   0  0  0  0  0
   67.5210   20.7910   51.9170 O   0  0  0  0  0
   67.8360   18.5850   51.7270 N   0  0  0  0  0
   67.4130   18.3340   53.0850 C   0  0  0  0  0
   67.3980   16.8290   53.3450 C   0  0  0  0  0
   66.2150   16.0610   52.7020 C   0  0  0  0  0
   64.8720   16.2910   53.0590 C   0  0  0  0  0
   63.8190   15.5340   52.5110 C   0  0  0  0  0
   64.0540   14.5190   51.5690 C   0  0  0  0  0
   65.3710   14.2770   51.2080 C   0  0  0  0  0
   66.4370   15.0450   51.7460 C   0  0  0  0  0
   68.4380   19.0490   53.9120 C   0  0  0  0  0
   69.6220   19.1160   53.5210 O   0  0  0  0  0
   67.9790   19.6120   55.0350 N   0  0  0  0  0
   68.7800   20.1880   56.1170 N   0  0  0  0  0
   68.9840   21.6210   56.1890 C   0  0  0  0  0
   70.1050   21.9410   55.2690 C   0  0  0  0  0
   70.1970   23.4410   55.3020 C   0  0  0  0  0
   71.4120   23.9980   55.0840 N   0  0  0  0  0
   69.1530   24.0810   55.5500 O   0  0  0  0  0
   69.2980   19.4190   57.0970 C   0  0  0  0  0
   70.0970   19.8850   57.8790 O   0  0  0  0  0
   68.8660   17.9800   57.2940 C   0  0  0  0  0
   70.0070   17.0050   57.0500 C   0  0  0  0  0
   70.5560   17.3440   55.7730 O   0  0  0  0  0
   69.4930   15.5740   57.1770 C   0  0  0  0  0
   69.5870   15.0140   58.2560 O   0  0  0  0  0
   68.9160   14.8830   56.0090 O   0  0  0  0  0
   68.0940   13.7390   56.3280 C   0  0  0  0  0
   67.7890   13.0840   55.0010 C   0  0  0  0  0
   67.5541   21.8633   49.3560 H   0  0  0  0  0
   64.5713   20.3805   47.4959 H   0  0  0  0  0
   65.0502   20.7166   45.8192 H   0  0  0  0  0
   62.8770   21.6212   48.5985 H   0  0  0  0  0
   61.1299   23.3936   48.4338 H   0  0  0  0  0
   61.1202   25.0139   46.5445 H   0  0  0  0  0
   62.8802   24.8759   44.7630 H   0  0  0  0  0
   64.6222   23.0900   44.9002 H   0  0  0  0  0
   68.3294   18.9157   49.3376 H   0  0  0  0  0
   70.3785   19.6336   50.5709 H   0  0  0  0  0
   69.8221   21.3234   50.5366 H   0  0  0  0  0
   69.9037   21.2091   47.9328 H   0  0  0  0  0
   72.4258   21.5467   48.0279 H   0  0  0  0  0
   72.4732   20.8224   49.6649 H   0  0  0  0  0
   71.6132   22.3720   49.3864 H   0  0  0  0  0
   71.4444   19.3758   47.0721 H   0  0  0  0  0
   69.9459   18.6841   47.7415 H   0  0  0  0  0
   71.4651   18.6143   48.6897 H   0  0  0  0  0
   68.1213   17.7869   51.1430 H   0  0  0  0  0
   66.3960   18.7554   53.2605 H   0  0  0  0  0
   67.3270   16.6639   54.4448 H   0  0  0  0  0
   68.3663   16.3736   53.0368 H   0  0  0  0  0
   64.6321   17.0744   53.7982 H   0  0  0  0  0
   62.7823   15.7445   52.8261 H   0  0  0  0  0
   63.2238   13.9339   51.1400 H   0  0  0  0  0
   65.5958   13.4787   50.4797 H   0  0  0  0  0
   67.4668   14.8220   51.4177 H   0  0  0  0  0
   66.9548   19.6323   55.1429 H   0  0  0  0  0
   69.2079   21.9707   57.2231 H   0  0  0  0  0
   68.0408   22.1291   55.8821 H   0  0  0  0  0
   69.9021   21.6054   54.2277 H   0  0  0  0  0
   71.0504   21.4637   55.6134 H   0  0  0  0  0
   68.0089   17.7303   56.6324 H   0  0  0  0  0
   68.4889   17.8563   58.3345 H   0  0  0  0  0
   70.7843   17.1675   57.8295 H   0  0  0  0  0
   71.2955   16.7809   55.5902 H   0  0  0  0  0
   67.1556   14.0509   56.8327 H   0  0  0  0  0
   68.6259   13.0214   56.9872 H   0  0  0  0  0
   67.1662   12.1725   55.1329 H   0  0  0  0  0
   68.7150   12.7739   54.4694 H   0  0  0  0  0
   67.2289   13.7646   54.3245 H   0  0  0  0  0
   71.4877   25.0226   55.1208 H   0  0  0  0  0
   72.2263   23.4019   54.8874 H   0  0  0  0  0
  1  2  1  0  0  0
  1 12  1  0  0  0
  1 47  1  0  0  0
  2  3  1  0  0  0
  2 11  2  0  0  0
  3  4  1  0  0  0
  4  5  1  0  0  0
  4 48  1  0  0  0
  4 49  1  0  0  0
  5  6  2  0  0  0
  5 10  1  0  0  0
  6  7  1  0  0  0
  6 50  1  0  0  0
  7  8  2  0  0  0
  7 51  1  0  0  0
  8  9  1  0  0  0
  8 52  1  0  0  0
  9 10  2  0  0  0
  9 53  1  0  0  0
 10 54  1  0  0  0
 12 13  1  0  0  0
 12 17  1  0  0  0
 12 55  1  0  0  0
 13 14  1  0  0  0
 13 56  1  0  0  0
 13 57  1  0  0  0
 14 15  1  0  0  0
 14 16  1  0  0  0
 14 58  1  0  0  0
 15 59  1  0  0  0
 15 60  1  0  0  0
 15 61  1  0  0  0
 16 62  1  0  0  0
 16 63  1  0  0  0
 16 64  1  0  0  0
 17 18  2  0  0  0
 17 19  1  0  0  0
 19 20  1  0  0  0
 19 65  1  0  0  0
 20 21  1  0  0  0
 20 28  1  0  0  0
 20 66  1  0  0  0
 21 22  1  0  0  0
 21 67  1  0  0  0
 21 68  1  0  0  0
 22 23  2  0  0  0
 22 27  1  0  0  0
 23 24  1  0  0  0
 23 69  1  0  0  0
 24 25  2  0  0  0
 24 70  1  0  0  0
 25 26  1  0  0  0
 25 71  1  0  0  0
 26 27  2  0  0  0
 26 72  1  0  0  0
 27 73  1  0  0  0
 28 29  2  0  0  0
 28 30  1  0  0  0
 30 31  1  0  0  0
 30 74  1  0  0  0
 31 32  1  0  0  0
 31 37  1  0  0  0
 32 33  1  0  0  0
 32 75  1  0  0  0
 32 76  1  0  0  0
 33 34  1  0  0  0
 33 77  1  0  0  0
 33 78  1  0  0  0
 34 35  1  0  0  0
 34 36  2  0  0  0
 35 88  1  0  0  0
 35 89  1  0  0  0
 37 38  2  0  0  0
 37 39  1  0  0  0
 39 40  1  0  0  0
 39 79  1  0  0  0
 39 80  1  0  0  0
 40 41  1  0  0  0
 40 42  1  0  0  0
 40 81  1  0  0  0
 41 82  1  0  0  0
 42 43  2  0  0  0
 42 44  1  0  0  0
 44 45  1  0  0  0
 45 46  1  0  0  0
 45 83  1  0  0  0
 45 84  1  0  0  0
 46 85  1  0  0  0
 46 86  1  0  0  0
 46 87  1  0  0  0
M  END
$$$$
