@<TRIPOS>MOLECULE
AZP_1_B_307
 89 90 0 0 0
SMALL
NO_CHARGES

@<TRIPOS>ATOM
      1 N          72.2040   60.1020   78.5910 N.am   307  AZP307      0.0000
      2 CAI        73.1920   60.9610   78.8880 C.2    307  AZP307      0.0000
      3 OAH        74.0390   61.4200   77.7730 O.3    307  AZP307      0.0000
      4 CAG        74.8010   62.5640   78.2080 C.3    307  AZP307      0.0000
      5 CAE        74.1550   63.8820   77.7740 C.ar   307  AZP307      0.0000
      6 CAD        74.6010   64.5330   76.6170 C.ar   307  AZP307      0.0000
      7 CAC        74.0080   65.7300   76.2200 C.ar   307  AZP307      0.0000
      8 CAB        72.9710   66.2680   76.9890 C.ar   307  AZP307      0.0000
      9 CAA        72.5130   65.6360   78.1500 C.ar   307  AZP307      0.0000
     10 CAF        73.1110   64.4430   78.5370 C.ar   307  AZP307      0.0000
     11 OAL        73.3980   61.3140   80.0540 O.2    307  AZP307      0.0000
     12 CA         70.9460   59.8940   79.3810 C.3    307  AZP307      0.0000
     13 CB         69.8260   60.0810   78.3410 C.3    307  AZP307      0.0000
     14 CG         68.4290   60.0140   78.9530 C.3    307  AZP307      0.0000
     15 CD1        67.9480   61.4340   79.2860 C.3    307  AZP307      0.0000
     16 CD2        67.5130   59.3160   77.9410 C.3    307  AZP307      0.0000
     17 C          70.8740   58.5240   80.0570 C.2    307  AZP307      0.0000
     18 O          70.9790   57.4680   79.4060 O.2    307  AZP307      0.0000
     19 NAS        70.6740   58.4400   81.3790 N.am   307  AZP307      0.0000
     20 CAT        70.5780   57.1500   82.0750 C.3    307  AZP307      0.0000
     21 CAV        70.1500   57.3230   83.5390 C.3    307  AZP307      0.0000
     22 CAW        71.2130   57.9970   84.4030 C.ar   307  AZP307      0.0000
     23 CBF        72.5750   57.7020   84.2660 C.ar   307  AZP307      0.0000
     24 CBG        73.4940   58.3550   85.1030 C.ar   307  AZP307      0.0000
     25 CBH        73.1210   59.2790   86.0810 C.ar   307  AZP307      0.0000
     26 CBI        71.7830   59.5640   86.2300 C.ar   307  AZP307      0.0000
     27 CBJ        70.8440   58.9310   85.3900 C.ar   307  AZP307      0.0000
     28 CAU        69.5060   56.2920   81.4510 C.2    307  AZP307      0.0000
     29 OAY        68.5660   56.8420   80.8710 O.2    307  AZP307      0.0000
     30 NAX        69.5530   54.9430   81.5700 N.am   307  AZP307      0.0000
     31 NAZ        68.6580   54.0680   80.8080 N.am   307  AZP307      0.0000
     32 CBA        68.9470   53.8530   79.3830 C.3    307  AZP307      0.0000
     33 CBB        67.8590   54.2930   78.4240 C.3    307  AZP307      0.0000
     34 CBC        68.3040   54.0100   77.0010 C.2    307  AZP307      0.0000
     35 NBE        67.4790   54.2410   75.9980 N.am   307  AZP307      0.0000
     36 OBD        69.4110   53.5780   76.7140 O.2    307  AZP307      0.0000
     37 CBK        67.6210   53.4530   81.4130 C.2    307  AZP307      0.0000
     38 OBL        66.8110   52.7900   80.7620 O.2    307  AZP307      0.0000
     39 CBM        67.4860   53.5020   82.9320 C.3    307  AZP307      0.0000
     40 CBO        66.6050   54.5920   83.5260 C.3    307  AZP307      0.0000
     41 OBN        66.7630   55.8050   82.7880 O.3    307  AZP307      0.0000
     42 CBP        67.0190   54.7680   84.9730 C.2    307  AZP307      0.0000
     43 OBQ        66.8810   53.8340   85.7650 O.2    307  AZP307      0.0000
     44 OBR        67.5850   56.0470   85.4300 O.3    307  AZP307      0.0000
     45 CBS        67.8510   55.9840   86.8530 C.3    307  AZP307      0.0000
     46 CBT        68.4840   57.2860   87.3270 C.3    307  AZP307      0.0000
     47 H          72.2958   59.5819   77.7087 H      307  AZP307      0.0000
     48 H          75.8058   62.5002   77.7400 H      307  AZP307      0.0000
     49 H          75.0133   62.5918   79.2943 H      307  AZP307      0.0000
     50 H          75.4178   64.1047   76.0117 H      307  AZP307      0.0000
     51 H          74.3521   66.2477   75.3086 H      307  AZP307      0.0000
     52 H          72.5021   67.2157   76.6722 H      307  AZP307      0.0000
     53 H          71.6947   66.0752   78.7449 H      307  AZP307      0.0000
     54 H          72.7599   63.9333   79.4500 H      307  AZP307      0.0000
     55 H          70.8465   60.6909   80.1548 H      307  AZP307      0.0000
     56 H          69.9362   59.2850   77.5684 H      307  AZP307      0.0000
     57 H          69.9619   61.0468   77.8017 H      307  AZP307      0.0000
     58 H          68.4398   59.4082   79.8886 H      307  AZP307      0.0000
     59 H          66.9378   61.4184   79.7530 H      307  AZP307      0.0000
     60 H          67.8790   62.0772   78.3805 H      307  AZP307      0.0000
     61 H          68.6288   61.9418   80.0052 H      307  AZP307      0.0000
     62 H          66.4670   59.2588   78.3173 H      307  AZP307      0.0000
     63 H          67.8364   58.2700   77.7386 H      307  AZP307      0.0000
     64 H          67.4806   59.8526   76.9663 H      307  AZP307      0.0000
     65 H          70.5994   59.3042   81.9331 H      307  AZP307      0.0000
     66 H          71.5446   56.6014   82.0056 H      307  AZP307      0.0000
     67 H          69.9421   56.3256   83.9903 H      307  AZP307      0.0000
     68 H          69.1972   57.8984   83.5860 H      307  AZP307      0.0000
     69 H          72.9461   56.9742   83.5273 H      307  AZP307      0.0000
     70 H          74.5672   58.1236   84.9838 H      307  AZP307      0.0000
     71 H          73.8792   59.7654   86.7174 H      307  AZP307      0.0000
     72 H          71.4470   60.2857   86.9938 H      307  AZP307      0.0000
     73 H          69.7785   59.1892   85.5136 H      307  AZP307      0.0000
     74 H          70.2642   54.5353   82.1937 H      307  AZP307      0.0000
     75 H          69.1601   52.7713   79.2127 H      307  AZP307      0.0000
     76 H          69.8889   54.3863   79.1139 H      307  AZP307      0.0000
     77 H          67.6600   55.3819   78.5482 H      307  AZP307      0.0000
     78 H          66.9055   53.7559   78.6194 H      307  AZP307      0.0000
     79 H          68.5044   53.5669   83.3750 H      307  AZP307      0.0000
     80 H          67.0959   52.5151   83.2727 H      307  AZP307      0.0000
     81 H          65.5425   54.2677   83.4810 H      307  AZP307      0.0000
     82 H          66.1814   56.4693   83.1317 H      307  AZP307      0.0000
     83 H          68.5381   55.1456   87.0979 H      307  AZP307      0.0000
     84 H          66.9058   55.8244   87.4158 H      307  AZP307      0.0000
     85 H          68.5531   57.3221   88.4361 H      307  AZP307      0.0000
     86 H          67.8996   58.1739   87.0020 H      307  AZP307      0.0000
     87 H          69.5175   57.3884   86.9387 H      307  AZP307      0.0000
     88 H          67.8038   54.0462   75.0422 H      307  AZP307      0.0000
     89 H          66.5369   54.6078   76.1843 H      307  AZP307      0.0000
@<TRIPOS>BOND
     1     1     2    1
     2     1    12    1
     3     1    47    1
     4     2     3    1
     5     2    11    2
     6     3     4    1
     7     4     5    1
     8     4    48    1
     9     4    49    1
    10     5     6   ar
    11     5    10   ar
    12     6     7   ar
    13     6    50    1
    14     7     8   ar
    15     7    51    1
    16     8     9   ar
    17     8    52    1
    18     9    10   ar
    19     9    53    1
    20    10    54    1
    21    12    13    1
    22    12    17    1
    23    12    55    1
    24    13    14    1
    25    13    56    1
    26    13    57    1
    27    14    15    1
    28    14    16    1
    29    14    58    1
    30    15    59    1
    31    15    60    1
    32    15    61    1
    33    16    62    1
    34    16    63    1
    35    16    64    1
    36    17    18    2
    37    17    19    1
    38    19    20    1
    39    19    65    1
    40    20    21    1
    41    20    28    1
    42    20    66    1
    43    21    22    1
    44    21    67    1
    45    21    68    1
    46    22    23   ar
    47    22    27   ar
    48    23    24   ar
    49    23    69    1
    50    24    25   ar
    51    24    70    1
    52    25    26   ar
    53    25    71    1
    54    26    27   ar
    55    26    72    1
    56    27    73    1
    57    28    29    2
    58    28    30    1
    59    30    31    1
    60    30    74    1
    61    31    32    1
    62    31    37    1
    63    32    33    1
    64    32    75    1
    65    32    76    1
    66    33    34    1
    67    33    77    1
    68    33    78    1
    69    34    35    1
    70    34    36    2
    71    35    88    1
    72    35    89    1
    73    37    38    2
    74    37    39    1
    75    39    40    1
    76    39    79    1
    77    39    80    1
    78    40    41    1
    79    40    42    1
    80    40    81    1
    81    41    82    1
    82    42    43    2
    83    42    44    1
    84    44    45    1
    85    45    46    1
    86    45    83    1
    87    45    84    1
    88    46    85    1
    89    46    86    1
    90    46    87    1

