DMS_2_A_402
  -ISIS-            3D

 10  9  0  0  0  0  0  0  0  0  1 V2000
   -6.1860   -1.2750    6.2650 S   0  0  0  0  0
   -7.0110   -0.9060    7.4440 O   0  0  0  0  0
   -7.2090   -0.9900    4.8410 C   0  0  0  0  0
   -6.1790   -3.0380    6.1860 C   0  0  0  0  0
   -6.7051   -1.3761    3.9314 H   0  0  0  0  0
   -7.3746    0.1003    4.7216 H   0  0  0  0  0
   -8.1907   -1.4924    4.9617 H   0  0  0  0  0
   -5.6993   -3.3722    5.2434 H   0  0  0  0  0
   -7.2143   -3.4337    6.2339 H   0  0  0  0  0
   -5.6004   -3.4412    7.0422 H   0  0  0  0  0
  1  2  2  0  0  0
  1  3  1  0  0  0
  1  4  1  0  0  0
  3  5  1  0  0  0
  3  6  1  0  0  0
  3  7  1  0  0  0
  4  8  1  0  0  0
  4  9  1  0  0  0
  4 10  1  0  0  0
M  END
$$$$
