DMS_2_A_403
  -ISIS-            3D

 10  9  0  0  0  0  0  0  0  0  1 V2000
   -2.3690  -18.9290   -8.1300 S   0  0  0  0  0
   -3.5790  -18.8230   -9.0350 O   0  0  0  0  0
   -1.0210  -18.2570   -9.0860 C   0  0  0  0  0
   -1.8710  -20.6250   -8.2230 C   0  0  0  0  0
   -0.0596  -18.4484   -8.5670 H   0  0  0  0  0
   -1.1586  -17.1613   -9.1909 H   0  0  0  0  0
   -0.9948  -18.7155  -10.0959 H   0  0  0  0  0
   -0.8886  -20.7576   -7.7254 H   0  0  0  0  0
   -1.7967  -20.9518   -9.2805 H   0  0  0  0  0
   -2.6213  -21.2558   -7.7037 H   0  0  0  0  0
  1  2  2  0  0  0
  1  3  1  0  0  0
  1  4  1  0  0  0
  3  5  1  0  0  0
  3  6  1  0  0  0
  3  7  1  0  0  0
  4  8  1  0  0  0
  4  9  1  0  0  0
  4 10  1  0  0  0
M  END
$$$$
