@<TRIPOS>MOLECULE
DMS_2_A_401
 10 9 0 0 0
SMALL
NO_CHARGES

@<TRIPOS>ATOM
      1 S          -6.8840  -28.0330  -21.3600 S.o    401  DMS401      0.0000
      2 O          -7.7120  -27.1260  -22.1730 O.2    401  DMS401      0.0000
      3 C1         -5.6480  -28.6870  -22.4560 C.3    401  DMS401      0.0000
      4 C2         -5.8110  -26.9950  -20.4140 C.3    401  DMS401      0.0000
      5 H          -4.8980  -29.2642  -21.8770 H      401  DMS401      0.0000
      6 H          -5.1411  -27.8666  -23.0036 H      401  DMS401      0.0000
      7 H          -6.1313  -29.3649  -23.1897 H      401  DMS401      0.0000
      8 H          -5.0562  -27.6133  -19.8860 H      401  DMS401      0.0000
      9 H          -6.4076  -26.4409  -19.6601 H      401  DMS401      0.0000
     10 H          -5.2959  -26.2654  -21.0712 H      401  DMS401      0.0000
@<TRIPOS>BOND
     1     1     2    2
     2     1     3    1
     3     1     4    1
     4     3     5    1
     5     3     6    1
     6     3     7    1
     7     4     8    1
     8     4     9    1
     9     4    10    1

