@<TRIPOS>MOLECULE
DMS_2_A_404
 10 9 0 0 0
SMALL
NO_CHARGES

@<TRIPOS>ATOM
      1 S          -5.7470    0.4810  -18.2110 S.o    404  DMS404      0.0000
      2 O          -5.0250    1.7860  -18.4410 O.2    404  DMS404      0.0000
      3 C1         -6.2440   -0.0870  -19.8170 C.3    404  DMS404      0.0000
      4 C2         -7.3580    0.9100  -17.6270 C.3    404  DMS404      0.0000
      5 H          -6.9117   -0.9669  -19.7162 H      404  DMS404      0.0000
      6 H          -5.3450   -0.3856  -20.3941 H      404  DMS404      0.0000
      7 H          -6.7735    0.7181  -20.3668 H      404  DMS404      0.0000
      8 H          -7.9971    0.0046  -17.5813 H      404  DMS404      0.0000
      9 H          -7.8274    1.6600  -18.2963 H      404  DMS404      0.0000
     10 H          -7.2761    1.3398  -16.6077 H      404  DMS404      0.0000
@<TRIPOS>BOND
     1     1     2    2
     2     1     3    1
     3     1     4    1
     4     3     5    1
     5     3     6    1
     6     3     7    1
     7     4     8    1
     8     4     9    1
     9     4    10    1

