DMS_1_A_403
  -ISIS-            3D

 10  9  0  0  0  0  0  0  0  0  1 V2000
    2.3150  -19.0550    8.0170 S   0  0  0  0  0
    3.6270  -18.5720    8.6150 O   0  0  0  0  0
    1.0380  -18.0290    8.7230 C   0  0  0  0  0
    1.9380  -20.5790    8.8720 C   0  0  0  0  0
    0.0409  -18.4263    8.4432 H   0  0  0  0  0
    1.1377  -16.9971    8.3288 H   0  0  0  0  0
    1.1305  -18.0056    9.8282 H   0  0  0  0  0
    0.9213  -20.9232    8.5926 H   0  0  0  0  0
    1.9889  -20.4268    9.9696 H   0  0  0  0  0
    2.6741  -21.3552    8.5785 H   0  0  0  0  0
  1  2  2  0  0  0
  1  3  1  0  0  0
  1  4  1  0  0  0
  3  5  1  0  0  0
  3  6  1  0  0  0
  3  7  1  0  0  0
  4  8  1  0  0  0
  4  9  1  0  0  0
  4 10  1  0  0  0
M  END
$$$$
