@<TRIPOS>MOLECULE
DMS_2_A_401
 10 9 0 0 0
SMALL
NO_CHARGES

@<TRIPOS>ATOM
      1 S          -7.0580  -28.4240  -21.6540 S.o    401  DMS401      0.0000
      2 O          -7.8080  -27.4410  -22.4590 O.2    401  DMS401      0.0000
      3 C1         -6.0150  -27.6020  -20.4200 C.3    401  DMS401      0.0000
      4 C2         -5.7330  -29.1070  -22.6900 C.3    401  DMS401      0.0000
      5 H          -5.3961  -28.3565  -19.8930 H      401  DMS401      0.0000
      6 H          -6.6626  -27.0842  -19.6835 H      401  DMS401      0.0000
      7 H          -5.3571  -26.8582  -20.9151 H      401  DMS401      0.0000
      8 H          -5.1140  -29.8052  -22.0905 H      401  DMS401      0.0000
      9 H          -5.0973  -28.2866  -23.0819 H      401  DMS401      0.0000
     10 H          -6.1833  -29.6593  -23.5402 H      401  DMS401      0.0000
@<TRIPOS>BOND
     1     1     2    2
     2     1     3    1
     3     1     4    1
     4     3     5    1
     5     3     6    1
     6     3     7    1
     7     4     8    1
     8     4     9    1
     9     4    10    1

