@<TRIPOS>MOLECULE
DMS_1_A_404
 10 9 0 0 0
SMALL
NO_CHARGES

@<TRIPOS>ATOM
      1 S           5.8300    0.2580   18.3730 S.o    404  DMS404      0.0000
      2 O           6.9610    0.8280   17.5640 O.2    404  DMS404      0.0000
      3 C1          4.9400    1.5950   19.2320 C.3    404  DMS404      0.0000
      4 C2          6.5640   -0.5770   19.8080 C.3    404  DMS404      0.0000
      5 H           4.1746    1.1580   19.9054 H      404  DMS404      0.0000
      6 H           4.4408    2.2412   18.4814 H      404  DMS404      0.0000
      7 H           5.6546    2.2032   19.8236 H      404  DMS404      0.0000
      8 H           5.7582   -0.9481   20.4737 H      404  DMS404      0.0000
      9 H           7.2117    0.1302   20.3656 H      404  DMS404      0.0000
     10 H           7.1732   -1.4358   19.4591 H      404  DMS404      0.0000
@<TRIPOS>BOND
     1     1     2    2
     2     1     3    1
     3     1     4    1
     4     3     5    1
     5     3     6    1
     6     3     7    1
     7     4     8    1
     8     4     9    1
     9     4    10    1

