@<TRIPOS>MOLECULE
DMS_2_A_406
 10 9 0 0 0
SMALL
NO_CHARGES

@<TRIPOS>ATOM
      1 S         -25.4630   -4.1600  -20.1630 S.o    406  DMS406      0.0000
      2 O         -24.8010   -2.9080  -19.6730 O.2    406  DMS406      0.0000
      3 C1        -24.9210   -4.5040  -21.8590 C.3    406  DMS406      0.0000
      4 C2        -24.7560   -5.5960  -19.3100 C.3    406  DMS406      0.0000
      5 H         -25.3576   -5.4647  -22.2006 H      406  DMS406      0.0000
      6 H         -23.8139   -4.5638  -21.8956 H      406  DMS406      0.0000
      7 H         -25.2671   -3.6880  -22.5258 H      406  DMS406      0.0000
      8 H         -25.1978   -6.5266  -19.7212 H      406  DMS406      0.0000
      9 H         -24.9882   -5.5287  -18.2275 H      406  DMS406      0.0000
     10 H         -23.6556   -5.6125  -19.4494 H      406  DMS406      0.0000
@<TRIPOS>BOND
     1     1     2    2
     2     1     3    1
     3     1     4    1
     4     3     5    1
     5     3     6    1
     6     3     7    1
     7     4     8    1
     8     4     9    1
     9     4    10    1

