DMS_1_A_406
  -ISIS-            3D

 10  9  0  0  0  0  0  0  0  0  1 V2000
   25.4630   -4.1600   20.1630 S   0  0  0  0  0
   24.8010   -2.9080   19.6730 O   0  0  0  0  0
   24.9210   -4.5040   21.8590 C   0  0  0  0  0
   24.7560   -5.5960   19.3100 C   0  0  0  0  0
   25.3576   -5.4647   22.2006 H   0  0  0  0  0
   23.8139   -4.5638   21.8956 H   0  0  0  0  0
   25.2671   -3.6880   22.5258 H   0  0  0  0  0
   25.1978   -6.5266   19.7212 H   0  0  0  0  0
   24.9882   -5.5287   18.2275 H   0  0  0  0  0
   23.6556   -5.6125   19.4494 H   0  0  0  0  0
  1  2  2  0  0  0
  1  3  1  0  0  0
  1  4  1  0  0  0
  3  5  1  0  0  0
  3  6  1  0  0  0
  3  7  1  0  0  0
  4  8  1  0  0  0
  4  9  1  0  0  0
  4 10  1  0  0  0
M  END
$$$$
