@<TRIPOS>MOLECULE
DMS_2_A_403
 10 9 0 0 0
SMALL
NO_CHARGES

@<TRIPOS>ATOM
      1 S         -21.7300   14.6310   -7.8270 S.o    403  DMS403      0.0000
      2 O         -23.0800   14.0140   -7.6250 O.2    403  DMS403      0.0000
      3 C1        -20.6430   14.0500   -6.4950 C.3    403  DMS403      0.0000
      4 C2        -20.9090   13.8280   -9.2250 C.3    403  DMS403      0.0000
      5 H         -19.6128   14.4238   -6.6662 H      403  DMS403      0.0000
      6 H         -20.6378   12.9410   -6.4672 H      403  DMS403      0.0000
      7 H         -21.0150   14.4392   -5.5252 H      403  DMS403      0.0000
      8 H         -19.8729   14.2126   -9.3192 H      403  DMS403      0.0000
      9 H         -21.4677   14.0560  -10.1557 H      403  DMS403      0.0000
     10 H         -20.8866   12.7296   -9.0712 H      403  DMS403      0.0000
@<TRIPOS>BOND
     1     1     2    2
     2     1     3    1
     3     1     4    1
     4     3     5    1
     5     3     6    1
     6     3     7    1
     7     4     8    1
     8     4     9    1
     9     4    10    1

