DMS_1_A_407
  -ISIS-            3D

 10  9  0  0  0  0  0  0  0  0  1 V2000
    7.2290  -21.4440   29.0590 S   0  0  0  0  0
    8.1600  -20.6550   29.9170 O   0  0  0  0  0
    5.5150  -21.1730   29.5910 C   0  0  0  0  0
    7.3860  -23.2000   29.4810 C   0  0  0  0  0
    4.8357  -21.8220   29.0014 H   0  0  0  0  0
    5.2437  -20.1110   29.4209 H   0  0  0  0  0
    5.4133  -21.4092   30.6701 H   0  0  0  0  0
    6.6494  -23.7898   28.8981 H   0  0  0  0  0
    7.2051  -23.3451   30.5658 H   0  0  0  0  0
    8.4097  -23.5458   29.2305 H   0  0  0  0  0
  1  2  2  0  0  0
  1  3  1  0  0  0
  1  4  1  0  0  0
  3  5  1  0  0  0
  3  6  1  0  0  0
  3  7  1  0  0  0
  4  8  1  0  0  0
  4  9  1  0  0  0
  4 10  1  0  0  0
M  END
$$$$
