EDO_1_A_7102
  -ISIS-            3D

 10  9  0  0  0  0  0  0  0  0  1 V2000
  -51.1120   58.4610   -9.0380 C   0  0  0  0  0
  -50.0030   59.3310   -8.7870 O   0  0  0  0  0
  -51.9170   58.9900  -10.2170 C   0  0  0  0  0
  -52.2720   60.3550   -9.9720 O   0  0  0  0  0
  -51.7447   58.4015   -8.1275 H   0  0  0  0  0
  -50.7350   57.4385   -9.2451 H   0  0  0  0  0
  -50.3504   60.2156   -8.8105 H   0  0  0  0  0
  -52.8349   58.3821  -10.3621 H   0  0  0  0  0
  -51.3198   58.9242  -11.1512 H   0  0  0  0  0
  -52.7724   60.6681  -10.7136 H   0  0  0  0  0
  1  2  1  0  0  0
  1  3  1  0  0  0
  1  5  1  0  0  0
  1  6  1  0  0  0
  2  7  1  0  0  0
  3  4  1  0  0  0
  3  8  1  0  0  0
  3  9  1  0  0  0
  4 10  1  0  0  0
M  END
$$$$
