@<TRIPOS>MOLECULE
EDO_1_A_7102
 10 9 0 0 0
SMALL
NO_CHARGES

@<TRIPOS>ATOM
      1 C1        -51.1120   58.4610   -9.0380 C.3   7102  EDO7102      0.0000
      2 O1        -50.0030   59.3310   -8.7870 O.3   7102  EDO7102      0.0000
      3 C2        -51.9170   58.9900  -10.2170 C.3   7102  EDO7102      0.0000
      4 O2        -52.2720   60.3550   -9.9720 O.3   7102  EDO7102      0.0000
      5 H         -51.7447   58.4015   -8.1275 H     7102  EDO7102      0.0000
      6 H         -50.7350   57.4385   -9.2451 H     7102  EDO7102      0.0000
      7 H         -50.3504   60.2156   -8.8105 H     7102  EDO7102      0.0000
      8 H         -52.8349   58.3821  -10.3621 H     7102  EDO7102      0.0000
      9 H         -51.3198   58.9242  -11.1512 H     7102  EDO7102      0.0000
     10 H         -52.7724   60.6681  -10.7136 H     7102  EDO7102      0.0000
@<TRIPOS>BOND
     1     1     2    1
     2     1     3    1
     3     1     5    1
     4     1     6    1
     5     2     7    1
     6     3     4    1
     7     3     8    1
     8     3     9    1
     9     4    10    1

