@<TRIPOS>MOLECULE
SAM_1_A_7104
 50 52 0 0 0
SMALL
NO_CHARGES

@<TRIPOS>ATOM
      1 N         -59.5910   65.2290    1.4230 N.3   7104  SAM7104      1.0000
      2 CA        -59.8980   66.6110    1.0700 C.3   7104  SAM7104      0.0000
      3 C         -61.2640   67.0470    1.5920 C.2   7104  SAM7104      0.0000
      4 O         -61.7570   66.5230    2.5910 O.co2 7104  SAM7104     -0.5000
      5 OXT       -61.8980   67.9460    1.0380 O.co2 7104  SAM7104     -0.5000
      6 CB        -59.8220   66.7940   -0.4420 C.3   7104  SAM7104      0.0000
      7 CG        -59.0360   65.7070   -1.1670 C.3   7104  SAM7104      0.0000
      8 SD        -58.6560   66.1650   -2.8770 S.3   7104  SAM7104      0.0000
      9 CE        -59.8190   65.0800   -3.7350 C.3   7104  SAM7104      0.0000
     10 C5'       -57.1210   65.2550   -3.1920 C.3   7104  SAM7104      0.0000
     11 C4'       -55.9000   65.9160   -2.5710 C.3   7104  SAM7104      0.0000
     12 O4'       -54.7610   65.0850   -2.6970 O.3   7104  SAM7104      0.0000
     13 C3'       -55.5760   67.2330   -3.2590 C.3   7104  SAM7104      0.0000
     14 O3'       -55.7880   68.2940   -2.3590 O.3   7104  SAM7104      0.0000
     15 C2'       -54.1070   67.1450   -3.6140 C.3   7104  SAM7104      0.0000
     16 O2'       -53.4230   68.2810   -3.1440 O.3   7104  SAM7104      0.0000
     17 C1'       -53.6240   65.9040   -2.8820 C.3   7104  SAM7104      0.0000
     18 N9        -52.5330   65.2220   -3.6060 N.ar  7104  SAM7104      0.0000
     19 C8        -52.5320   64.8000   -4.9110 C.ar  7104  SAM7104      0.0000
     20 N7        -51.3320   64.2300   -5.1730 N.ar  7104  SAM7104      0.0000
     21 C5        -50.5690   64.2870   -4.0580 C.ar  7104  SAM7104      0.0000
     22 C6        -49.2770   63.8560   -3.7830 C.ar  7104  SAM7104      0.0000
     23 N6        -48.5590   63.2590   -4.7300 N.pl3 7104  SAM7104      0.0000
     24 N1        -48.7460   64.0530   -2.5240 N.ar  7104  SAM7104      0.0000
     25 C2        -49.5010   64.6750   -1.5490 C.ar  7104  SAM7104      0.0000
     26 N3        -50.7840   65.1000   -1.8310 N.ar  7104  SAM7104      0.0000
     27 C4        -51.3120   64.9090   -3.0660 C.ar  7104  SAM7104      0.0000
     28 H         -60.2330   64.5787    0.9785 H     7104  SAM7104      0.0000
     29 H         -59.6816   65.1009    2.4271 H     7104  SAM7104      0.0000
     30 H         -59.1334   67.2704    1.5485 H     7104  SAM7104      0.0000
     31 H         -59.3795   67.7939   -0.6597 H     7104  SAM7104      0.0000
     32 H         -60.8467   66.8077   -0.8797 H     7104  SAM7104      0.0000
     33 H         -59.5466   64.7201   -1.1416 H     7104  SAM7104      0.0000
     34 H         -58.0435   65.5874   -0.6801 H     7104  SAM7104      0.0000
     35 H         -59.6593   65.1453   -4.8332 H     7104  SAM7104      0.0000
     36 H         -60.8638   65.3970   -3.5261 H     7104  SAM7104      0.0000
     37 H         -59.7152   64.0145   -3.4375 H     7104  SAM7104      0.0000
     38 H         -56.9827   65.1542   -4.2909 H     7104  SAM7104      0.0000
     39 H         -57.2349   64.2223   -2.7945 H     7104  SAM7104      0.0000
     40 H         -56.0717   66.0913   -1.4871 H     7104  SAM7104      0.0000
     41 H         -56.1811   67.3902   -4.1758 H     7104  SAM7104      0.0000
     42 H         -55.2475   69.0266   -2.6272 H     7104  SAM7104      0.0000
     43 H         -53.9942   67.0424   -4.7132 H     7104  SAM7104      0.0000
     44 H         -52.5066   68.1877   -3.3710 H     7104  SAM7104      0.0000
     45 H         -53.2349   66.1906   -1.8807 H     7104  SAM7104      0.0000
     46 H         -53.3062   64.8543   -5.6858 H     7104  SAM7104      0.0000
     47 H         -49.0787   64.8322   -0.5444 H     7104  SAM7104      0.0000
     48 H         -47.6144   62.9733   -4.4443 H     7104  SAM7104      0.0000
     49 H         -48.9897   63.1292   -5.6544 H     7104  SAM7104      0.0000
     50 H         -58.6363   64.9719    1.1944 H     7104  SAM7104      0.0000
@<TRIPOS>BOND
     1     1     2    1
     2     1    28    1
     3     1    29    1
     4     2     3    1
     5     2     6    1
     6     2    30    1
     7     3     4   ar
     8     3     5   ar
     9     6     7    1
    10     6    31    1
    11     6    32    1
    12     7     8    1
    13     7    33    1
    14     7    34    1
    15     8     9    1
    16     8    10    1
    17     9    35    1
    18     9    36    1
    19     9    37    1
    20    10    11    1
    21    10    38    1
    22    10    39    1
    23    11    12    1
    24    11    13    1
    25    11    40    1
    26    12    17    1
    27    13    14    1
    28    13    15    1
    29    13    41    1
    30    14    42    1
    31    15    16    1
    32    15    17    1
    33    15    43    1
    34    16    44    1
    35    17    18    1
    36    17    45    1
    37    18    19   ar
    38    18    27   ar
    39    19    20   ar
    40    19    46    1
    41    20    21   ar
    42    21    22   ar
    43    21    27   ar
    44    22    23    1
    45    22    24   ar
    46    23    48    1
    47    23    49    1
    48    24    25   ar
    49    25    26   ar
    50    25    47    1
    51    26    27   ar
    52     1    50    1

