@<TRIPOS>MOLECULE
EDO_1_L_401
 10 9 0 0 0
SMALL
NO_CHARGES

@<TRIPOS>ATOM
      1 C1         -4.0060  -38.9570  -11.3580 C.3    401  EDO401      0.0000
      2 O1         -3.7330  -40.0310  -12.2720 O.3    401  EDO401      0.0000
      3 C2         -4.5090  -37.7840  -12.1830 C.3    401  EDO401      0.0000
      4 O2         -3.5770  -37.5280  -13.2550 O.3    401  EDO401      0.0000
      5 H          -3.0791  -38.6916  -10.8079 H      401  EDO401      0.0000
      6 H          -4.7620  -39.2825  -10.6148 H      401  EDO401      0.0000
      7 H          -3.2328  -39.6542  -12.9875 H      401  EDO401      0.0000
      8 H          -4.6119  -36.8787  -11.5485 H      401  EDO401      0.0000
      9 H          -5.5093  -38.0113  -12.6093 H      401  EDO401      0.0000
     10 H          -3.9056  -36.7972  -13.7612 H      401  EDO401      0.0000
@<TRIPOS>BOND
     1     1     2    1
     2     1     3    1
     3     1     5    1
     4     1     6    1
     5     2     7    1
     6     3     4    1
     7     3     8    1
     8     3     9    1
     9     4    10    1

