EDO_1_H_307
  -ISIS-            3D

 10  9  0  0  0  0  0  0  0  0  1 V2000
    5.2720  -62.9910  -27.1970 C   0  0  0  0  0
    4.6120  -61.9320  -27.9030 O   0  0  0  0  0
    5.3170  -64.2430  -28.0680 C   0  0  0  0  0
    6.4260  -64.1460  -28.9700 O   0  0  0  0  0
    4.6915  -63.2003  -26.2743 H   0  0  0  0  0
    6.2864  -62.6756  -26.8752 H   0  0  0  0  0
    5.2379  -61.5639  -28.5134 H   0  0  0  0  0
    4.3652  -64.3967  -28.6182 H   0  0  0  0  0
    5.4709  -65.1376  -27.4291 H   0  0  0  0  0
    6.0935  -63.8896  -29.8201 H   0  0  0  0  0
  1  2  1  0  0  0
  1  3  1  0  0  0
  1  5  1  0  0  0
  1  6  1  0  0  0
  2  7  1  0  0  0
  3  4  1  0  0  0
  3  8  1  0  0  0
  3  9  1  0  0  0
  4 10  1  0  0  0
M  END
$$$$
