EDO_1_H_304
  -ISIS-            3D

 10  9  0  0  0  0  0  0  0  0  1 V2000
    0.2210  -10.0170  -20.7270 C   0  0  0  0  0
    1.2750   -9.5760  -21.5980 O   0  0  0  0  0
   -0.4380  -11.2770  -21.2890 C   0  0  0  0  0
    0.5470  -12.2840  -21.5580 O   0  0  0  0  0
   -0.5291   -9.2066  -20.6115 H   0  0  0  0  0
    0.6392  -10.2298  -19.7200 H   0  0  0  0  0
    1.7785   -8.9127  -21.1443 H   0  0  0  0  0
   -0.9777  -11.0292  -22.2280 H   0  0  0  0  0
   -1.1867  -11.6732  -20.5713 H   0  0  0  0  0
    0.1406  -12.9694  -22.0721 H   0  0  0  0  0
  1  2  1  0  0  0
  1  3  1  0  0  0
  1  5  1  0  0  0
  1  6  1  0  0  0
  2  7  1  0  0  0
  3  4  1  0  0  0
  3  8  1  0  0  0
  3  9  1  0  0  0
  4 10  1  0  0  0
M  END
$$$$
