@<TRIPOS>MOLECULE
EDO_1_H_307
 10 9 0 0 0
SMALL
NO_CHARGES

@<TRIPOS>ATOM
      1 C1          5.2720  -62.9910  -27.1970 C.3    307  EDO307      0.0000
      2 O1          4.6120  -61.9320  -27.9030 O.3    307  EDO307      0.0000
      3 C2          5.3170  -64.2430  -28.0680 C.3    307  EDO307      0.0000
      4 O2          6.4260  -64.1460  -28.9700 O.3    307  EDO307      0.0000
      5 H           4.6915  -63.2003  -26.2743 H      307  EDO307      0.0000
      6 H           6.2864  -62.6756  -26.8752 H      307  EDO307      0.0000
      7 H           5.2379  -61.5639  -28.5134 H      307  EDO307      0.0000
      8 H           4.3652  -64.3967  -28.6182 H      307  EDO307      0.0000
      9 H           5.4709  -65.1376  -27.4291 H      307  EDO307      0.0000
     10 H           6.0935  -63.8896  -29.8201 H      307  EDO307      0.0000
@<TRIPOS>BOND
     1     1     2    1
     2     1     3    1
     3     1     5    1
     4     1     6    1
     5     2     7    1
     6     3     4    1
     7     3     8    1
     8     3     9    1
     9     4    10    1

