@<TRIPOS>MOLECULE
EDO_1_H_306
 10 9 0 0 0
SMALL
NO_CHARGES

@<TRIPOS>ATOM
      1 C1        -14.9670  -53.1640  -17.3300 C.3    306  EDO306      0.0000
      2 O1        -14.4500  -54.2340  -16.5150 O.3    306  EDO306      0.0000
      3 C2        -15.4740  -53.7630  -18.6340 C.3    306  EDO306      0.0000
      4 O2        -16.4300  -54.7950  -18.3310 O.3    306  EDO306      0.0000
      5 H         -14.1680  -52.4189  -17.5273 H      306  EDO306      0.0000
      6 H         -15.7891  -52.6469  -16.7913 H      306  EDO306      0.0000
      7 H         -14.1284  -53.8583  -15.7056 H      306  EDO306      0.0000
      8 H         -14.6378  -54.1951  -19.2229 H      306  EDO306      0.0000
      9 H         -15.9586  -52.9888  -19.2633 H      306  EDO306      0.0000
     10 H         -16.0319  -55.3321  -17.6554 H      306  EDO306      0.0000
@<TRIPOS>BOND
     1     1     2    1
     2     1     3    1
     3     1     5    1
     4     1     6    1
     5     2     7    1
     6     3     4    1
     7     3     8    1
     8     3     9    1
     9     4    10    1

