@<TRIPOS>MOLECULE
EDO_1_L_403
 10 9 0 0 0
SMALL
NO_CHARGES

@<TRIPOS>ATOM
      1 C1         10.0230  -63.0230    0.1030 C.3    403  EDO403      0.0000
      2 O1          9.3470  -61.7590    0.1300 O.3    403  EDO403      0.0000
      3 C2         10.0030  -63.5400   -1.3280 C.3    403  EDO403      0.0000
      4 O2         10.6340  -64.8300   -1.4080 O.3    403  EDO403      0.0000
      5 H           9.4943  -63.7253    0.7800 H      403  EDO403      0.0000
      6 H          11.0618  -62.9126    0.4791 H      403  EDO403      0.0000
      7 H           9.9591  -61.0857   -0.1358 H      403  EDO403      0.0000
      8 H          10.5473  -62.8412   -1.9968 H      403  EDO403      0.0000
      9 H           8.9619  -63.6101   -1.7088 H      403  EDO403      0.0000
     10 H          10.0154  -65.4836   -1.1091 H      403  EDO403      0.0000
@<TRIPOS>BOND
     1     1     2    1
     2     1     3    1
     3     1     5    1
     4     1     6    1
     5     2     7    1
     6     3     4    1
     7     3     8    1
     8     3     9    1
     9     4    10    1

