@<TRIPOS>MOLECULE
EDO_1_H_308
 10 9 0 0 0
SMALL
NO_CHARGES

@<TRIPOS>ATOM
      1 C1          5.8930  -43.0140  -10.9430 C.3    308  EDO308      0.0000
      2 O1          5.7660  -43.7460  -12.1690 O.3    308  EDO308      0.0000
      3 C2          5.6620  -41.5090  -11.1460 C.3    308  EDO308      0.0000
      4 O2          4.2570  -41.2140  -11.2820 O.3    308  EDO308      0.0000
      5 H           6.9055  -43.1873  -10.5195 H      308  EDO308      0.0000
      6 H           5.1697  -43.4176  -10.2047 H      308  EDO308      0.0000
      7 H           6.5846  -43.6845  -12.6436 H      308  EDO308      0.0000
      8 H           6.2124  -41.1377  -12.0354 H      308  EDO308      0.0000
      9 H           6.0486  -40.9478  -10.2699 H      308  EDO308      0.0000
     10 H           3.9214  -41.7785  -11.9673 H      308  EDO308      0.0000
@<TRIPOS>BOND
     1     1     2    1
     2     1     3    1
     3     1     5    1
     4     1     6    1
     5     2     7    1
     6     3     4    1
     7     3     8    1
     8     3     9    1
     9     4    10    1

