@<TRIPOS>MOLECULE
EDO_1_H_305
 10 9 0 0 0
SMALL
NO_CHARGES

@<TRIPOS>ATOM
      1 C1         15.9560  -16.0960  -10.8930 C.3    305  EDO305      0.0000
      2 O1         16.3670  -17.2050  -10.0850 O.3    305  EDO305      0.0000
      3 C2         15.1460  -16.5610  -12.1100 C.3    305  EDO305      0.0000
      4 O2         16.2320  -16.9880  -12.9510 O.3    305  EDO305      0.0000
      5 H          16.8358  -15.4905  -11.1997 H      305  EDO305      0.0000
      6 H          15.3199  -15.4324  -10.2692 H      305  EDO305      0.0000
      7 H          17.1046  -16.9298   -9.5570 H      305  EDO305      0.0000
      8 H          14.5931  -15.7272  -12.5890 H      305  EDO305      0.0000
      9 H          14.4556  -17.3952  -11.8705 H      305  EDO305      0.0000
     10 H          15.8674  -17.4953  -13.6640 H      305  EDO305      0.0000
@<TRIPOS>BOND
     1     1     2    1
     2     1     3    1
     3     1     5    1
     4     1     6    1
     5     2     7    1
     6     3     4    1
     7     3     8    1
     8     3     9    1
     9     4    10    1

