@<TRIPOS>MOLECULE
EDO_1_A_601
 10 9 0 0 0
SMALL
NO_CHARGES

@<TRIPOS>ATOM
      1 C1         15.2270   -9.3320   -4.1720 C.3    601  EDO601      0.0000
      2 O1         15.4540   -7.9710   -4.5930 O.3    601  EDO601      0.0000
      3 C2         14.5670  -10.1670   -5.2690 C.3    601  EDO601      0.0000
      4 O2         15.2360  -10.0100   -6.5380 O.3    601  EDO601      0.0000
      5 H          14.6001   -9.3273   -3.2566 H      601  EDO601      0.0000
      6 H          16.2025   -9.7825   -3.8913 H      601  EDO601      0.0000
      7 H          15.7618   -8.0232   -5.4909 H      601  EDO601      0.0000
      8 H          13.5063   -9.8568   -5.3826 H      601  EDO601      0.0000
      9 H          14.5642  -11.2394   -4.9805 H      601  EDO601      0.0000
     10 H          14.7876  -10.5483   -7.1763 H      601  EDO601      0.0000
@<TRIPOS>BOND
     1     1     2    1
     2     1     3    1
     3     1     5    1
     4     1     6    1
     5     2     7    1
     6     3     4    1
     7     3     8    1
     8     3     9    1
     9     4    10    1

