@<TRIPOS>MOLECULE
EDO_1_H_311
 10 9 0 0 0
SMALL
NO_CHARGES

@<TRIPOS>ATOM
      1 C1          2.7700  -46.2450   -6.2430 C.3    311  EDO311      0.0000
      2 O1          3.5020  -45.8260   -5.0830 O.3    311  EDO311      0.0000
      3 C2          3.7170  -46.2280   -7.4420 C.3    311  EDO311      0.0000
      4 O2          3.0610  -46.6900   -8.6320 O.3    311  EDO311      0.0000
      5 H           1.9225  -45.5477   -6.4053 H      311  EDO311      0.0000
      6 H           2.3446  -47.2578   -6.0815 H      311  EDO311      0.0000
      7 H           3.9791  -46.5716   -4.7438 H      311  EDO311      0.0000
      8 H           4.5872  -46.8892   -7.2478 H      311  EDO311      0.0000
      9 H           4.1195  -45.2064   -7.6098 H      311  EDO311      0.0000
     10 H           2.5208  -45.9862   -8.9671 H      311  EDO311      0.0000
@<TRIPOS>BOND
     1     1     2    1
     2     1     3    1
     3     1     5    1
     4     1     6    1
     5     2     7    1
     6     3     4    1
     7     3     8    1
     8     3     9    1
     9     4    10    1

