@<TRIPOS>MOLECULE
EDO_1_L_402
 10 9 0 0 0
SMALL
NO_CHARGES

@<TRIPOS>ATOM
      1 C1          3.9880  -61.1860   10.0020 C.3    402  EDO402      0.0000
      2 O1          4.2960  -62.5740   10.1480 O.3    402  EDO402      0.0000
      3 C2          2.4690  -61.0490   10.0400 C.3    402  EDO402      0.0000
      4 O2          1.9590  -61.4050   11.3240 O.3    402  EDO402      0.0000
      5 H           4.3868  -60.8141    9.0347 H      402  EDO402      0.0000
      6 H           4.4614  -60.5998   10.8173 H      402  EDO402      0.0000
      7 H           5.2381  -62.6733   10.1142 H      402  EDO402      0.0000
      8 H           1.9945  -61.6816    9.2606 H      402  EDO402      0.0000
      9 H           2.1781  -59.9999    9.8247 H      402  EDO402      0.0000
     10 H           2.3151  -62.2633   11.5216 H      402  EDO402      0.0000
@<TRIPOS>BOND
     1     1     2    1
     2     1     3    1
     3     1     5    1
     4     1     6    1
     5     2     7    1
     6     3     4    1
     7     3     8    1
     8     3     9    1
     9     4    10    1

