@<TRIPOS>MOLECULE
EDO_1_A_605
 10 9 0 0 0
SMALL
NO_CHARGES

@<TRIPOS>ATOM
      1 C1         17.6270   25.2950  -22.8060 C.3    605  EDO605      0.0000
      2 O1         17.7450   23.8990  -22.5030 O.3    605  EDO605      0.0000
      3 C2         18.1800   25.5690  -24.2010 C.3    605  EDO605      0.0000
      4 O2         17.8930   26.9240  -24.5810 O.3    605  EDO605      0.0000
      5 H          18.1556   25.9011  -22.0404 H      605  EDO605      0.0000
      6 H          16.5535   25.5729  -22.7607 H      605  EDO605      0.0000
      7 H          18.6162   23.7386  -22.1651 H      605  EDO605      0.0000
      8 H          17.7171   24.8779  -24.9372 H      605  EDO605      0.0000
      9 H          19.2772   25.3999  -24.2245 H      605  EDO605      0.0000
     10 H          18.1873   27.0507  -25.4735 H      605  EDO605      0.0000
@<TRIPOS>BOND
     1     1     2    1
     2     1     3    1
     3     1     5    1
     4     1     6    1
     5     2     7    1
     6     3     4    1
     7     3     8    1
     8     3     9    1
     9     4    10    1

