@<TRIPOS>MOLECULE
EDO_1_H_310
 10 9 0 0 0
SMALL
NO_CHARGES

@<TRIPOS>ATOM
      1 C1         -2.1900  -30.7930   -0.9790 C.3    310  EDO310      0.0000
      2 O1         -1.9810  -32.1710   -0.6290 O.3    310  EDO310      0.0000
      3 C2         -1.7440  -30.5270   -2.4160 C.3    310  EDO310      0.0000
      4 O2         -2.6330  -31.1560   -3.3610 O.3    310  EDO310      0.0000
      5 H          -1.6064  -30.1532   -0.2832 H      310  EDO310      0.0000
      6 H          -3.2603  -30.5293   -0.8462 H      310  EDO310      0.0000
      7 H          -2.2855  -32.3049    0.2592 H      310  EDO310      0.0000
      8 H          -0.7151  -30.9085   -2.5792 H      310  EDO310      0.0000
      9 H          -1.7184  -29.4345   -2.6145 H      310  EDO310      0.0000
     10 H          -3.4848  -30.7447   -3.2961 H      310  EDO310      0.0000
@<TRIPOS>BOND
     1     1     2    1
     2     1     3    1
     3     1     5    1
     4     1     6    1
     5     2     7    1
     6     3     4    1
     7     3     8    1
     8     3     9    1
     9     4    10    1

