EDO_1_H_308
  -ISIS-            3D

 10  9  0  0  0  0  0  0  0  0  1 V2000
    5.8930  -43.0140  -10.9430 C   0  0  0  0  0
    5.7660  -43.7460  -12.1690 O   0  0  0  0  0
    5.6620  -41.5090  -11.1460 C   0  0  0  0  0
    4.2570  -41.2140  -11.2820 O   0  0  0  0  0
    6.9055  -43.1873  -10.5195 H   0  0  0  0  0
    5.1697  -43.4176  -10.2047 H   0  0  0  0  0
    6.5846  -43.6845  -12.6436 H   0  0  0  0  0
    6.2124  -41.1377  -12.0354 H   0  0  0  0  0
    6.0486  -40.9478  -10.2699 H   0  0  0  0  0
    3.9214  -41.7785  -11.9673 H   0  0  0  0  0
  1  2  1  0  0  0
  1  3  1  0  0  0
  1  5  1  0  0  0
  1  6  1  0  0  0
  2  7  1  0  0  0
  3  4  1  0  0  0
  3  8  1  0  0  0
  3  9  1  0  0  0
  4 10  1  0  0  0
M  END
$$$$
