SFG_1_A_1298
  -ISIS-            3D

 50 52  0  0  0  0  0  0  0  0  1 V2000
   40.7110   61.3490   -4.3110 N   0  3  0  0  0
   41.1200   60.0970   -3.6060 C   0  0  0  0  0
   39.9600   59.1410   -3.6520 C   0  0  0  0  0
   39.1880   59.1470   -4.6060 O   0  0  0  0  0
   39.7500   58.3140   -2.7670 O   0  0  0  0  0
   41.5570   60.3950   -2.1710 C   0  0  0  0  0
   42.6310   61.4820   -2.1190 C   0  0  0  0  0
   43.4550   61.4620   -0.8310 C   0  0  0  0  0
   42.5750   61.5870    0.3250 N   0  0  0  0  0
   44.4560   62.6150   -0.8400 C   0  0  0  0  0
   45.6380   62.3420   -1.7650 C   0  0  0  0  0
   46.3810   63.5440   -2.0120 O   0  0  0  0  0
   46.6370   61.3350   -1.2050 C   0  0  0  0  0
   46.6020   60.1750   -2.0270 O   0  0  0  0  0
   47.9820   62.0130   -1.3270 C   0  0  0  0  0
   48.9750   61.1290   -1.8450 O   0  0  0  0  0
   47.7180   63.1440   -2.3090 C   0  0  0  0  0
   48.7340   64.2290   -2.2040 N   0  0  0  0  0
   49.0130   64.9800   -1.1320 C   0  0  0  0  0
   50.0160   65.8400   -1.4350 N   0  0  0  0  0
   50.3620   65.6240   -2.7160 C   0  0  0  0  0
   51.3120   66.1980   -3.5640 C   0  0  0  0  0
   52.1180   67.2000   -3.1270 N   0  0  0  0  0
   51.4260   65.7430   -4.8370 N   0  0  0  0  0
   50.6250   64.7460   -5.2640 C   0  0  0  0  0
   49.6970   64.1800   -4.4650 N   0  0  0  0  0
   49.5510   64.6040   -3.1900 C   0  0  0  0  0
   41.4854   62.0008   -4.3841 H   0  0  0  0  0
   39.9496   61.8101   -3.8203 H   0  0  0  0  0
   41.9700   59.6326   -4.1613 H   0  0  0  0  0
   41.9554   59.4593   -1.7152 H   0  0  0  0  0
   40.6817   60.7052   -1.5553 H   0  0  0  0  0
   42.1546   62.4814   -2.2439 H   0  0  0  0  0
   43.3147   61.3413   -2.9855 H   0  0  0  0  0
   43.9952   60.4898   -0.7525 H   0  0  0  0  0
   42.1138   62.4925    0.3380 H   0  0  0  0  0
   43.0985   61.4967    1.1915 H   0  0  0  0  0
   44.8430   62.8042    0.1863 H   0  0  0  0  0
   43.9467   63.5546   -1.1507 H   0  0  0  0  0
   45.2656   61.9828   -2.7478 H   0  0  0  0  0
   46.4207   61.0730   -0.1484 H   0  0  0  0  0
   47.0476   59.4786   -1.5613 H   0  0  0  0  0
   48.2981   62.4104   -0.3408 H   0  0  0  0  0
   48.6365   60.7380   -2.6417 H   0  0  0  0  0
   47.7477   62.7618   -3.3526 H   0  0  0  0  0
   48.5711   64.9842   -0.1279 H   0  0  0  0  0
   50.7285   64.3854   -6.2998 H   0  0  0  0  0
   52.7852   67.5570   -3.8221 H   0  0  0  0  0
   52.0007   67.5166   -2.1561 H   0  0  0  0  0
   40.4076   61.1516   -5.2603 H   0  0  0  0  0
  1  2  1  0  0  0
  1 28  1  0  0  0
  1 29  1  0  0  0
  2  3  1  0  0  0
  2  6  1  0  0  0
  2 30  1  0  0  0
  3  4  2  0  0  0
  3  5  2  0  0  0
  6  7  1  0  0  0
  6 31  1  0  0  0
  6 32  1  0  0  0
  7  8  1  0  0  0
  7 33  1  0  0  0
  7 34  1  0  0  0
  8  9  1  0  0  0
  8 10  1  0  0  0
  8 35  1  0  0  0
  9 36  1  0  0  0
  9 37  1  0  0  0
 10 11  1  0  0  0
 10 38  1  0  0  0
 10 39  1  0  0  0
 11 12  1  0  0  0
 11 13  1  0  0  0
 11 40  1  0  0  0
 12 17  1  0  0  0
 13 14  1  0  0  0
 13 15  1  0  0  0
 13 41  1  0  0  0
 14 42  1  0  0  0
 15 16  1  0  0  0
 15 17  1  0  0  0
 15 43  1  0  0  0
 16 44  1  0  0  0
 17 18  1  0  0  0
 17 45  1  0  0  0
 18 19  1  0  0  0
 18 27  1  0  0  0
 19 20  2  0  0  0
 19 46  1  0  0  0
 20 21  1  0  0  0
 21 22  2  0  0  0
 21 27  1  0  0  0
 22 23  1  0  0  0
 22 24  1  0  0  0
 23 48  1  0  0  0
 23 49  1  0  0  0
 24 25  2  0  0  0
 25 26  1  0  0  0
 25 47  1  0  0  0
 26 27  2  0  0  0
  1 50  1  0  0  0
M  END
$$$$
