@<TRIPOS>MOLECULE
SFG_1_A_1298
 50 52 0 0 0
SMALL
NO_CHARGES

@<TRIPOS>ATOM
      1 N          40.7110   61.3490   -4.3110 N.3   1298  SFG1298      1.0000
      2 CA         41.1200   60.0970   -3.6060 C.3   1298  SFG1298      0.0000
      3 C          39.9600   59.1410   -3.6520 C.2   1298  SFG1298      0.0000
      4 O          39.1880   59.1470   -4.6060 O.co2 1298  SFG1298     -0.5000
      5 OXT        39.7500   58.3140   -2.7670 O.co2 1298  SFG1298     -0.5000
      6 CB         41.5570   60.3950   -2.1710 C.3   1298  SFG1298      0.0000
      7 CG         42.6310   61.4820   -2.1190 C.3   1298  SFG1298      0.0000
      8 CD         43.4550   61.4620   -0.8310 C.3   1298  SFG1298      0.0000
      9 NE         42.5750   61.5870    0.3250 N.3   1298  SFG1298      0.0000
     10 C5'        44.4560   62.6150   -0.8400 C.3   1298  SFG1298      0.0000
     11 C4'        45.6380   62.3420   -1.7650 C.3   1298  SFG1298      0.0000
     12 O4'        46.3810   63.5440   -2.0120 O.3   1298  SFG1298      0.0000
     13 C3'        46.6370   61.3350   -1.2050 C.3   1298  SFG1298      0.0000
     14 O3'        46.6020   60.1750   -2.0270 O.3   1298  SFG1298      0.0000
     15 C2'        47.9820   62.0130   -1.3270 C.3   1298  SFG1298      0.0000
     16 O2'        48.9750   61.1290   -1.8450 O.3   1298  SFG1298      0.0000
     17 C1'        47.7180   63.1440   -2.3090 C.3   1298  SFG1298      0.0000
     18 N9         48.7340   64.2290   -2.2040 N.ar  1298  SFG1298      0.0000
     19 C8         49.0130   64.9800   -1.1320 C.ar  1298  SFG1298      0.0000
     20 N7         50.0160   65.8400   -1.4350 N.ar  1298  SFG1298      0.0000
     21 C5         50.3620   65.6240   -2.7160 C.ar  1298  SFG1298      0.0000
     22 C6         51.3120   66.1980   -3.5640 C.ar  1298  SFG1298      0.0000
     23 N6         52.1180   67.2000   -3.1270 N.pl3 1298  SFG1298      0.0000
     24 N1         51.4260   65.7430   -4.8370 N.ar  1298  SFG1298      0.0000
     25 C2         50.6250   64.7460   -5.2640 C.ar  1298  SFG1298      0.0000
     26 N3         49.6970   64.1800   -4.4650 N.ar  1298  SFG1298      0.0000
     27 C4         49.5510   64.6040   -3.1900 C.ar  1298  SFG1298      0.0000
     28 H          41.4854   62.0008   -4.3841 H     1298  SFG1298      0.0000
     29 H          39.9496   61.8101   -3.8203 H     1298  SFG1298      0.0000
     30 H          41.9700   59.6326   -4.1613 H     1298  SFG1298      0.0000
     31 H          41.9554   59.4593   -1.7152 H     1298  SFG1298      0.0000
     32 H          40.6817   60.7052   -1.5553 H     1298  SFG1298      0.0000
     33 H          42.1546   62.4814   -2.2439 H     1298  SFG1298      0.0000
     34 H          43.3147   61.3413   -2.9855 H     1298  SFG1298      0.0000
     35 H          43.9952   60.4898   -0.7525 H     1298  SFG1298      0.0000
     36 H          42.1138   62.4925    0.3380 H     1298  SFG1298      0.0000
     37 H          43.0985   61.4967    1.1915 H     1298  SFG1298      0.0000
     38 H          44.8430   62.8042    0.1863 H     1298  SFG1298      0.0000
     39 H          43.9467   63.5546   -1.1507 H     1298  SFG1298      0.0000
     40 H          45.2656   61.9828   -2.7478 H     1298  SFG1298      0.0000
     41 H          46.4207   61.0730   -0.1484 H     1298  SFG1298      0.0000
     42 H          47.0476   59.4786   -1.5613 H     1298  SFG1298      0.0000
     43 H          48.2981   62.4104   -0.3408 H     1298  SFG1298      0.0000
     44 H          48.6365   60.7380   -2.6417 H     1298  SFG1298      0.0000
     45 H          47.7477   62.7618   -3.3526 H     1298  SFG1298      0.0000
     46 H          48.5711   64.9842   -0.1279 H     1298  SFG1298      0.0000
     47 H          50.7285   64.3854   -6.2998 H     1298  SFG1298      0.0000
     48 H          52.7852   67.5570   -3.8221 H     1298  SFG1298      0.0000
     49 H          52.0007   67.5166   -2.1561 H     1298  SFG1298      0.0000
     50 H          40.4076   61.1516   -5.2603 H     1298  SFG1298      0.0000
@<TRIPOS>BOND
     1     1     2    1
     2     1    28    1
     3     1    29    1
     4     2     3    1
     5     2     6    1
     6     2    30    1
     7     3     4   ar
     8     3     5   ar
     9     6     7    1
    10     6    31    1
    11     6    32    1
    12     7     8    1
    13     7    33    1
    14     7    34    1
    15     8     9    1
    16     8    10    1
    17     8    35    1
    18     9    36    1
    19     9    37    1
    20    10    11    1
    21    10    38    1
    22    10    39    1
    23    11    12    1
    24    11    13    1
    25    11    40    1
    26    12    17    1
    27    13    14    1
    28    13    15    1
    29    13    41    1
    30    14    42    1
    31    15    16    1
    32    15    17    1
    33    15    43    1
    34    16    44    1
    35    17    18    1
    36    17    45    1
    37    18    19   ar
    38    18    27   ar
    39    19    20   ar
    40    19    46    1
    41    20    21   ar
    42    21    22   ar
    43    21    27   ar
    44    22    23    1
    45    22    24   ar
    46    23    48    1
    47    23    49    1
    48    24    25   ar
    49    25    26   ar
    50    25    47    1
    51    26    27   ar
    52     1    50    1

