@<TRIPOS>MOLECULE
EDO_2_B_406
 10 9 0 0 0
SMALL
NO_CHARGES

@<TRIPOS>ATOM
      1 C1         58.0700  -80.0150   27.8490 C.3    406  EDO406      0.0000
      2 O1         57.4600  -78.9590   28.6110 O.3    406  EDO406      0.0000
      3 C2         59.5630  -80.1150   28.1670 C.3    406  EDO406      0.0000
      4 O2         60.3610  -80.1810   26.9760 O.3    406  EDO406      0.0000
      5 H          57.9243  -79.8061   26.7679 H      406  EDO406      0.0000
      6 H          57.5606  -80.9771   28.0672 H      406  EDO406      0.0000
      7 H          56.5561  -78.8811   28.3358 H      406  EDO406      0.0000
      8 H          59.7612  -81.0083   28.7961 H      406  EDO406      0.0000
      9 H          59.8829  -79.2303   28.7578 H      406  EDO406      0.0000
     10 H          61.2741  -80.1735   27.2310 H      406  EDO406      0.0000
@<TRIPOS>BOND
     1     1     2    1
     2     1     3    1
     3     1     5    1
     4     1     6    1
     5     2     7    1
     6     3     4    1
     7     3     8    1
     8     3     9    1
     9     4    10    1

