@<TRIPOS>MOLECULE
EDO_1_A_406
 10 9 0 0 0
SMALL
NO_CHARGES

@<TRIPOS>ATOM
      1 C1         71.7880  -15.1900  -11.3390 C.3    406  EDO406      0.0000
      2 O1         71.9300  -13.7690  -11.4600 O.3    406  EDO406      0.0000
      3 C2         71.8340  -15.8370  -12.7210 C.3    406  EDO406      0.0000
      4 O2         73.1540  -15.7500  -13.2780 O.3    406  EDO406      0.0000
      5 H          70.8306  -15.4286  -10.8289 H      406  EDO406      0.0000
      6 H          72.6030  -15.5838  -10.6972 H      406  EDO406      0.0000
      7 H          71.0722  -13.3901  -11.6000 H      406  EDO406      0.0000
      8 H          71.1049  -15.3606  -13.4092 H      406  EDO406      0.0000
      9 H          71.5562  -16.9090  -12.6471 H      406  EDO406      0.0000
     10 H          73.4309  -14.8467  -13.1812 H      406  EDO406      0.0000
@<TRIPOS>BOND
     1     1     2    1
     2     1     3    1
     3     1     5    1
     4     1     6    1
     5     2     7    1
     6     3     4    1
     7     3     8    1
     8     3     9    1
     9     4    10    1

