EDO_1_B_404
  -ISIS-            3D

 10  9  0  0  0  0  0  0  0  0  1 V2000
   63.5830   -9.3530   32.0610 C   0  0  0  0  0
   63.9050   -9.2210   30.6730 O   0  0  0  0  0
   62.1560   -9.8760   32.2210 C   0  0  0  0  0
   61.2270   -9.1350   31.4170 O   0  0  0  0  0
   63.6792   -8.3622   32.5540 H   0  0  0  0  0
   64.3033  -10.0407   32.5522 H   0  0  0  0  0
   64.7929   -8.8966   30.6044 H   0  0  0  0  0
   61.8392   -9.8224   33.2829 H   0  0  0  0  0
   62.1092  -10.9454   31.9247 H   0  0  0  0  0
   61.6554   -9.0002   30.5791 H   0  0  0  0  0
  1  2  1  0  0  0
  1  3  1  0  0  0
  1  5  1  0  0  0
  1  6  1  0  0  0
  2  7  1  0  0  0
  3  4  1  0  0  0
  3  8  1  0  0  0
  3  9  1  0  0  0
  4 10  1  0  0  0
M  END
$$$$
