EDO_2_B_403
  -ISIS-            3D

 10  9  0  0  0  0  0  0  0  0  1 V2000
   35.2530  -70.6160   28.0500 C   0  0  0  0  0
   34.7990  -71.1330   26.8150 O   0  0  0  0  0
   36.6110  -71.1780   28.4210 C   0  0  0  0  0
   36.8630  -70.6550   29.7340 O   0  0  0  0  0
   34.5048  -70.8816   28.8264 H   0  0  0  0  0
   35.2835  -69.5063   28.0023 H   0  0  0  0  0
   35.2668  -70.6967   26.1149 H   0  0  0  0  0
   37.4000  -70.8303   27.7236 H   0  0  0  0  0
   36.6144  -72.2879   28.4320 H   0  0  0  0  0
   36.5482  -71.2805   30.3731 H   0  0  0  0  0
  1  2  1  0  0  0
  1  3  1  0  0  0
  1  5  1  0  0  0
  1  6  1  0  0  0
  2  7  1  0  0  0
  3  4  1  0  0  0
  3  8  1  0  0  0
  3  9  1  0  0  0
  4 10  1  0  0  0
M  END
$$$$
