@<TRIPOS>MOLECULE
EDO_3_A_406
 10 9 0 0 0
SMALL
NO_CHARGES

@<TRIPOS>ATOM
      1 C1        101.9080  -54.5750  -11.3390 C.3    406  EDO406      0.0000
      2 O1        103.0680  -55.4090  -11.4600 O.3    406  EDO406      0.0000
      3 C2        101.3240  -54.2910  -12.7210 C.3    406  EDO406      0.0000
      4 O2        100.7400  -55.4780  -13.2780 O.3    406  EDO406      0.0000
      5 H         102.2058  -53.6265  -10.8459 H      406  EDO406      0.0000
      6 H         101.1582  -55.0640  -10.6826 H      406  EDO406      0.0000
      7 H         102.7975  -56.1768  -11.9490 H      406  EDO406      0.0000
      8 H         102.1102  -53.9027  -13.4025 H      406  EDO406      0.0000
      9 H         100.5414  -53.5066  -12.6412 H      406  EDO406      0.0000
     10 H         100.3834  -55.2611  -14.1291 H      406  EDO406      0.0000
@<TRIPOS>BOND
     1     1     2    1
     2     1     3    1
     3     1     5    1
     4     1     6    1
     5     2     7    1
     6     3     4    1
     7     3     8    1
     8     3     9    1
     9     4    10    1

