@<TRIPOS>MOLECULE
EDO_3_A_409
 10 9 0 0 0
SMALL
NO_CHARGES

@<TRIPOS>ATOM
      1 C1        108.8670  -58.0220  -19.0330 C.3    409  EDO409      0.0000
      2 O1        108.7650  -58.5220  -20.3720 O.3    409  EDO409      0.0000
      3 C2        107.7210  -58.5820  -18.1950 C.3    409  EDO409      0.0000
      4 O2        107.5460  -57.8220  -16.9880 O.3    409  EDO409      0.0000
      5 H         108.8398  -56.9118  -19.0492 H      409  EDO409      0.0000
      6 H         109.8456  -58.3207  -18.6043 H      409  EDO409      0.0000
      7 H         108.1263  -57.9998  -20.8393 H      409  EDO409      0.0000
      8 H         107.8902  -59.6525  -17.9536 H      409  EDO409      0.0000
      9 H         106.7714  -58.5284  -18.7675 H      409  EDO409      0.0000
     10 H         108.2095  -58.0931  -16.3673 H      409  EDO409      0.0000
@<TRIPOS>BOND
     1     1     2    1
     2     1     3    1
     3     1     5    1
     4     1     6    1
     5     2     7    1
     6     3     4    1
     7     3     8    1
     8     3     9    1
     9     4    10    1

