EDO_2_B_404
  -ISIS-            3D

 10  9  0  0  0  0  0  0  0  0  1 V2000
   51.7870  -70.9920   32.0610 C   0  0  0  0  0
   51.5120  -70.7790   30.6730 O   0  0  0  0  0
   52.9540  -71.9660   32.2210 C   0  0  0  0  0
   52.7760  -73.1410   31.4170 O   0  0  0  0  0
   50.8809  -71.4046   32.5537 H   0  0  0  0  0
   52.0220  -70.0243   32.5524 H   0  0  0  0  0
   50.7867  -70.1727   30.6043 H   0  0  0  0  0
   53.0661  -72.2671   33.2829 H   0  0  0  0  0
   53.9034  -71.4719   31.9243 H   0  0  0  0  0
   52.4471  -72.8370   30.5784 H   0  0  0  0  0
  1  2  1  0  0  0
  1  3  1  0  0  0
  1  5  1  0  0  0
  1  6  1  0  0  0
  2  7  1  0  0  0
  3  4  1  0  0  0
  3  8  1  0  0  0
  3  9  1  0  0  0
  4 10  1  0  0  0
M  END
$$$$
