EDO_1_A_406
  -ISIS-            3D

 10  9  0  0  0  0  0  0  0  0  1 V2000
   71.7880  -15.1900  -11.3390 C   0  0  0  0  0
   71.9300  -13.7690  -11.4600 O   0  0  0  0  0
   71.8340  -15.8370  -12.7210 C   0  0  0  0  0
   73.1540  -15.7500  -13.2780 O   0  0  0  0  0
   70.8306  -15.4286  -10.8289 H   0  0  0  0  0
   72.6030  -15.5838  -10.6972 H   0  0  0  0  0
   71.0722  -13.3901  -11.6000 H   0  0  0  0  0
   71.1049  -15.3606  -13.4092 H   0  0  0  0  0
   71.5562  -16.9090  -12.6471 H   0  0  0  0  0
   73.4309  -14.8467  -13.1812 H   0  0  0  0  0
  1  2  1  0  0  0
  1  3  1  0  0  0
  1  5  1  0  0  0
  1  6  1  0  0  0
  2  7  1  0  0  0
  3  4  1  0  0  0
  3  8  1  0  0  0
  3  9  1  0  0  0
  4 10  1  0  0  0
M  END
$$$$
