@<TRIPOS>MOLECULE
EDO_2_A_406
 10 9 0 0 0
SMALL
NO_CHARGES

@<TRIPOS>ATOM
      1 C1         52.7400  -60.9670  -11.3390 C.3    406  EDO406      0.0000
      2 O1         51.4380  -61.5550  -11.4600 O.3    406  EDO406      0.0000
      3 C2         53.2770  -60.6040  -12.7210 C.3    406  EDO406      0.0000
      4 O2         52.5410  -59.5050  -13.2780 O.3    406  EDO406      0.0000
      5 H          53.4128  -61.6992  -10.8462 H      406  EDO406      0.0000
      6 H          52.6913  -60.0730  -10.6827 H      406  EDO406      0.0000
      7 H          50.9067  -60.9348  -11.9448 H      406  EDO406      0.0000
      8 H          53.2194  -61.4792  -13.4021 H      406  EDO406      0.0000
      9 H          54.3476  -60.3183  -12.6421 H      406  EDO406      0.0000
     10 H          52.9048  -59.3067  -14.1306 H      406  EDO406      0.0000
@<TRIPOS>BOND
     1     1     2    1
     2     1     3    1
     3     1     5    1
     4     1     6    1
     5     2     7    1
     6     3     4    1
     7     3     8    1
     8     3     9    1
     9     4    10    1

