@<TRIPOS>MOLECULE
EDO_2_A_407
 10 9 0 0 0
SMALL
NO_CHARGES

@<TRIPOS>ATOM
      1 C1         29.5630  -41.2700  -35.2420 C.3    407  EDO407      0.0000
      2 O1         29.1610  -40.0180  -35.8100 O.3    407  EDO407      0.0000
      3 C2         29.4410  -42.3220  -36.3320 C.3    407  EDO407      0.0000
      4 O2         30.5960  -42.2920  -37.1660 O.3    407  EDO407      0.0000
      5 H          28.8895  -41.5172  -34.3941 H      407  EDO407      0.0000
      6 H          30.5981  -41.2067  -34.8466 H      407  EDO407      0.0000
      7 H          29.2213  -39.3547  -35.1355 H      407  EDO407      0.0000
      8 H          28.5214  -42.1840  -36.9381 H      407  EDO407      0.0000
      9 H          29.3753  -43.3307  -35.8733 H      407  EDO407      0.0000
     10 H          30.6190  -41.4340  -37.5714 H      407  EDO407      0.0000
@<TRIPOS>BOND
     1     1     2    1
     2     1     3    1
     3     1     5    1
     4     1     6    1
     5     2     7    1
     6     3     4    1
     7     3     8    1
     8     3     9    1
     9     4    10    1

