@<TRIPOS>MOLECULE
EDO_1_A_408
 10 9 0 0 0
SMALL
NO_CHARGES

@<TRIPOS>ATOM
      1 C1         68.4580  -24.7630  -22.7060 C.3    408  EDO408      0.0000
      2 O1         69.7920  -24.6620  -23.2460 O.3    408  EDO408      0.0000
      3 C2         68.4840  -25.0140  -21.2020 C.3    408  EDO408      0.0000
      4 O2         67.6940  -26.1670  -20.8450 O.3    408  EDO408      0.0000
      5 H          67.9240  -25.5854  -23.2271 H      408  EDO408      0.0000
      6 H          67.9002  -23.8283  -22.9268 H      408  EDO408      0.0000
      7 H          69.7230  -24.4726  -24.1726 H      408  EDO408      0.0000
      8 H          68.0842  -24.1314  -20.6610 H      408  EDO408      0.0000
      9 H          69.5247  -25.1578  -20.8422 H      408  EDO408      0.0000
     10 H          68.2095  -26.9417  -21.0265 H      408  EDO408      0.0000
@<TRIPOS>BOND
     1     1     2    1
     2     1     3    1
     3     1     5    1
     4     1     6    1
     5     2     7    1
     6     3     4    1
     7     3     8    1
     8     3     9    1
     9     4    10    1

