@<TRIPOS>MOLECULE
EDO_2_B_411
 10 9 0 0 0
SMALL
NO_CHARGES

@<TRIPOS>ATOM
      1 C1         69.4270  -41.7620   16.2590 C.3    411  EDO411      0.0000
      2 O1         68.6300  -40.9520   17.1310 O.3    411  EDO411      0.0000
      3 C2         69.2110  -43.2380   16.5760 C.3    411  EDO411      0.0000
      4 O2         69.3060  -44.0050   15.3670 O.3    411  EDO411      0.0000
      5 H          70.4987  -41.4912   16.3611 H      411  EDO411      0.0000
      6 H          69.1294  -41.5488   15.2100 H      411  EDO411      0.0000
      7 H          68.7162  -40.0472   16.8603 H      411  EDO411      0.0000
      8 H          68.1961  -43.3943   16.9973 H      411  EDO411      0.0000
      9 H          69.9378  -43.6032   17.3313 H      411  EDO411      0.0000
     10 H          70.2230  -44.1584   15.1810 H      411  EDO411      0.0000
@<TRIPOS>BOND
     1     1     2    1
     2     1     3    1
     3     1     5    1
     4     1     6    1
     5     2     7    1
     6     3     4    1
     7     3     8    1
     8     3     9    1
     9     4    10    1

