EDO_3_B_403
  -ISIS-            3D

 10  9  0  0  0  0  0  0  0  0  1 V2000
  119.0080  -64.8940   28.0500 C   0  0  0  0  0
  119.6820  -65.0290   26.8150 O   0  0  0  0  0
  118.8150  -63.4380   28.4210 C   0  0  0  0  0
  118.2360  -63.4810   29.7340 O   0  0  0  0  0
  119.6120  -65.4065   28.8281 H   0  0  0  0  0
  118.0319  -65.4227   28.0039 H   0  0  0  0  0
  119.0593  -64.8889   26.1137 H   0  0  0  0  0
  118.1322  -62.9218   27.7148 H   0  0  0  0  0
  119.7835  -62.8962   28.4472 H   0  0  0  0  0
  118.1553  -62.5910   30.0505 H   0  0  0  0  0
  1  2  1  0  0  0
  1  3  1  0  0  0
  1  5  1  0  0  0
  1  6  1  0  0  0
  2  7  1  0  0  0
  3  4  1  0  0  0
  3  8  1  0  0  0
  3  9  1  0  0  0
  4 10  1  0  0  0
M  END
$$$$
