@<TRIPOS>MOLECULE
EDO_1_A_409
 10 9 0 0 0
SMALL
NO_CHARGES

@<TRIPOS>ATOM
      1 C1         71.2940   -7.4400  -19.0330 C.3    409  EDO409      0.0000
      2 O1         71.7780   -7.2780  -20.3720 O.3    409  EDO409      0.0000
      3 C2         72.3510   -8.1530  -18.1950 C.3    409  EDO409      0.0000
      4 O2         71.7810   -8.6840  -16.9880 O.3    409  EDO409      0.0000
      5 H          70.3655   -8.0467  -19.0709 H      409  EDO409      0.0000
      6 H          71.0264   -6.4569  -18.5925 H      409  EDO409      0.0000
      7 H          72.3130   -6.4959  -20.4042 H      409  EDO409      0.0000
      8 H          73.1783   -7.4567  -17.9432 H      409  EDO409      0.0000
      9 H          72.7903   -8.9904  -18.7787 H      409  EDO409      0.0000
     10 H          72.4521   -9.1783  -16.5349 H      409  EDO409      0.0000
@<TRIPOS>BOND
     1     1     2    1
     2     1     3    1
     3     1     5    1
     4     1     6    1
     5     2     7    1
     6     3     4    1
     7     3     8    1
     8     3     9    1
     9     4    10    1

