EDO_1_A_407
  -ISIS-            3D

 10  9  0  0  0  0  0  0  0  0  1 V2000
  100.4350   -4.9670  -35.2420 C   0  0  0  0  0
  101.7200   -5.2450  -35.8100 O   0  0  0  0  0
   99.5840   -4.3350  -36.3320 C   0  0  0  0  0
   99.0330   -5.3500  -37.1660 O   0  0  0  0  0
  100.5702   -4.2600  -34.3974 H   0  0  0  0  0
   99.9760   -5.8915  -34.8348 H   0  0  0  0  0
  101.5836   -5.8807  -36.5017 H   0  0  0  0  0
  100.1730   -3.6147  -36.9378 H   0  0  0  0  0
   98.7507   -3.7658  -35.8669 H   0  0  0  0  0
   98.5011   -4.9329  -37.8307 H   0  0  0  0  0
  1  2  1  0  0  0
  1  3  1  0  0  0
  1  5  1  0  0  0
  1  6  1  0  0  0
  2  7  1  0  0  0
  3  4  1  0  0  0
  3  8  1  0  0  0
  3  9  1  0  0  0
  4 10  1  0  0  0
M  END
$$$$
