@<TRIPOS>MOLECULE
EDO_2_A_409
 10 9 0 0 0
SMALL
NO_CHARGES

@<TRIPOS>ATOM
      1 C1         46.2750  -65.2710  -19.0330 C.3    409  EDO409      0.0000
      2 O1         45.8930  -64.9320  -20.3720 O.3    409  EDO409      0.0000
      3 C2         46.3630  -63.9980  -18.1950 C.3    409  EDO409      0.0000
      4 O2         47.1090  -64.2260  -16.9880 O.3    409  EDO409      0.0000
      5 H          47.2508  -65.8014  -19.0474 H      409  EDO409      0.0000
      6 H          45.5279  -65.9694  -18.6033 H      409  EDO409      0.0000
      7 H          46.6775  -64.7345  -20.8667 H      409  EDO409      0.0000
      8 H          45.3449  -63.6313  -17.9455 H      409  EDO409      0.0000
      9 H          46.8689  -63.1964  -18.7744 H      409  EDO409      0.0000
     10 H          47.0938  -63.4288  -16.4751 H      409  EDO409      0.0000
@<TRIPOS>BOND
     1     1     2    1
     2     1     3    1
     3     1     5    1
     4     1     6    1
     5     2     7    1
     6     3     4    1
     7     3     8    1
     8     3     9    1
     9     4    10    1

