@<TRIPOS>MOLECULE
EDO_3_B_403
 10 9 0 0 0
SMALL
NO_CHARGES

@<TRIPOS>ATOM
      1 C1        119.0080  -64.8940   28.0500 C.3    403  EDO403      0.0000
      2 O1        119.6820  -65.0290   26.8150 O.3    403  EDO403      0.0000
      3 C2        118.8150  -63.4380   28.4210 C.3    403  EDO403      0.0000
      4 O2        118.2360  -63.4810   29.7340 O.3    403  EDO403      0.0000
      5 H         119.6120  -65.4065   28.8281 H      403  EDO403      0.0000
      6 H         118.0319  -65.4227   28.0039 H      403  EDO403      0.0000
      7 H         119.0593  -64.8889   26.1137 H      403  EDO403      0.0000
      8 H         118.1322  -62.9218   27.7148 H      403  EDO403      0.0000
      9 H         119.7835  -62.8962   28.4472 H      403  EDO403      0.0000
     10 H         118.1553  -62.5910   30.0505 H      403  EDO403      0.0000
@<TRIPOS>BOND
     1     1     2    1
     2     1     3    1
     3     1     5    1
     4     1     6    1
     5     2     7    1
     6     3     4    1
     7     3     8    1
     8     3     9    1
     9     4    10    1

