@<TRIPOS>MOLECULE
EDO_2_A_405
 10 9 0 0 0
SMALL
NO_CHARGES

@<TRIPOS>ATOM
      1 C1         61.5790  -47.3490  -29.3070 C.3    405  EDO405      0.0000
      2 O1         62.4760  -48.2010  -30.0310 O.3    405  EDO405      0.0000
      3 C2         62.2880  -46.7500  -28.0940 C.3    405  EDO405      0.0000
      4 O2         63.4740  -46.0620  -28.5140 O.3    405  EDO405      0.0000
      5 H          60.6945  -47.9392  -28.9905 H      405  EDO405      0.0000
      6 H          61.2135  -46.5452  -29.9803 H      405  EDO405      0.0000
      7 H          63.2890  -47.7159  -30.1163 H      405  EDO405      0.0000
      8 H          62.5602  -47.5519  -27.3753 H      405  EDO405      0.0000
      9 H          61.6131  -46.0436  -27.5659 H      405  EDO405      0.0000
     10 H          63.8915  -45.6965  -27.7456 H      405  EDO405      0.0000
@<TRIPOS>BOND
     1     1     2    1
     2     1     3    1
     3     1     5    1
     4     1     6    1
     5     2     7    1
     6     3     4    1
     7     3     8    1
     8     3     9    1
     9     4    10    1

