@<TRIPOS>MOLECULE
EDO_2_B_403
 10 9 0 0 0
SMALL
NO_CHARGES

@<TRIPOS>ATOM
      1 C1         35.2530  -70.6160   28.0500 C.3    403  EDO403      0.0000
      2 O1         34.7990  -71.1330   26.8150 O.3    403  EDO403      0.0000
      3 C2         36.6110  -71.1780   28.4210 C.3    403  EDO403      0.0000
      4 O2         36.8630  -70.6550   29.7340 O.3    403  EDO403      0.0000
      5 H          34.5048  -70.8816   28.8264 H      403  EDO403      0.0000
      6 H          35.2835  -69.5063   28.0023 H      403  EDO403      0.0000
      7 H          35.2668  -70.6967   26.1149 H      403  EDO403      0.0000
      8 H          37.4000  -70.8303   27.7236 H      403  EDO403      0.0000
      9 H          36.6144  -72.2879   28.4320 H      403  EDO403      0.0000
     10 H          36.5482  -71.2805   30.3731 H      403  EDO403      0.0000
@<TRIPOS>BOND
     1     1     2    1
     2     1     3    1
     3     1     5    1
     4     1     6    1
     5     2     7    1
     6     3     4    1
     7     3     8    1
     8     3     9    1
     9     4    10    1

