EDO_3_A_408
  -ISIS-            3D

 10  9  0  0  0  0  0  0  0  0  1 V2000
   95.2820  -46.9050  -22.7060 C   0  0  0  0  0
   94.7030  -48.1100  -23.2460 O   0  0  0  0  0
   95.0530  -46.8020  -21.2020 C   0  0  0  0  0
   94.4490  -45.5410  -20.8450 O   0  0  0  0  0
   94.8362  -46.0313  -23.2266 H   0  0  0  0  0
   96.3702  -46.8887  -22.9276 H   0  0  0  0  0
   94.9011  -48.1446  -24.1727 H   0  0  0  0  0
   96.0177  -46.8964  -20.6617 H   0  0  0  0  0
   94.4087  -47.6314  -20.8414 H   0  0  0  0  0
   93.5203  -45.6006  -21.0261 H   0  0  0  0  0
  1  2  1  0  0  0
  1  3  1  0  0  0
  1  5  1  0  0  0
  1  6  1  0  0  0
  2  7  1  0  0  0
  3  4  1  0  0  0
  3  8  1  0  0  0
  3  9  1  0  0  0
  4 10  1  0  0  0
M  END
$$$$
