EDO_2_B_406
  -ISIS-            3D

 10  9  0  0  0  0  0  0  0  0  1 V2000
   58.0700  -80.0150   27.8490 C   0  0  0  0  0
   57.4600  -78.9590   28.6110 O   0  0  0  0  0
   59.5630  -80.1150   28.1670 C   0  0  0  0  0
   60.3610  -80.1810   26.9760 O   0  0  0  0  0
   57.9243  -79.8061   26.7679 H   0  0  0  0  0
   57.5606  -80.9771   28.0672 H   0  0  0  0  0
   56.5561  -78.8811   28.3358 H   0  0  0  0  0
   59.7612  -81.0083   28.7961 H   0  0  0  0  0
   59.8829  -79.2303   28.7578 H   0  0  0  0  0
   61.2741  -80.1735   27.2310 H   0  0  0  0  0
  1  2  1  0  0  0
  1  3  1  0  0  0
  1  5  1  0  0  0
  1  6  1  0  0  0
  2  7  1  0  0  0
  3  4  1  0  0  0
  3  8  1  0  0  0
  3  9  1  0  0  0
  4 10  1  0  0  0
M  END
$$$$
