@<TRIPOS>MOLECULE
FMT_1_B_409
 3 2 0 0 0
SMALL
NO_CHARGES

@<TRIPOS>ATOM
      1 C          71.4350  -35.2410   15.4430 C.2    409  FMT409      0.0000
      2 O1         70.6420  -35.0510   16.3650 O.2    409  FMT409      0.0000
      3 O2         71.1870  -35.9280   14.4520 O.2    409  FMT409     -0.5000
@<TRIPOS>BOND
     1     1     2   ar
     2     1     3   ar

