@<TRIPOS>MOLECULE
FMT_3_B_410
 3 2 0 0 0
SMALL
NO_CHARGES

@<TRIPOS>ATOM
      1 C          82.1890  -49.2520   19.1260 C.2    410  FMT410      0.0000
      2 O1         81.3590  -49.9260   18.5090 O.2    410  FMT410      0.0000
      3 O2         82.6390  -48.1690   18.7410 O.2    410  FMT410     -0.5000
@<TRIPOS>BOND
     1     1     2   ar
     2     1     3   ar

