@<TRIPOS>MOLECULE
U5P_3_A_401
 33 34 0 0 0
SMALL
NO_CHARGES

@<TRIPOS>ATOM
      1 N1         87.0310  -69.7450  -25.5720 N.ar   401  U5P401      0.0000
      2 C2         87.7100  -68.5470  -25.6950 C.ar   401  U5P401      0.0000
      3 N3         88.5710  -68.2550  -24.6640 N.ar   401  U5P401      0.0000
      4 C4         88.8030  -69.0200  -23.5370 C.ar   401  U5P401      0.0000
      5 C5         88.0570  -70.2430  -23.4790 C.ar   401  U5P401      0.0000
      6 C6         87.2080  -70.5540  -24.4730 C.ar   401  U5P401      0.0000
      7 O2         87.5580  -67.8040  -26.6550 O.2    401  U5P401      0.0000
      8 O4         89.6010  -68.6210  -22.6870 O.2    401  U5P401      0.0000
      9 C1'        86.0670  -70.0770  -26.6600 C.3    401  U5P401      0.0000
     10 C2'        86.7370  -70.6860  -27.8920 C.3    401  U5P401      0.0000
     11 O2'        85.9780  -70.3110  -29.0270 O.3    401  U5P401      0.0000
     12 C3'        86.5500  -72.1690  -27.6300 C.3    401  U5P401      0.0000
     13 C4'        85.1690  -72.2150  -26.9960 C.3    401  U5P401      0.0000
     14 O3'        86.6650  -72.9650  -28.7970 O.3    401  U5P401      0.0000
     15 O4'        85.1290  -71.0180  -26.1740 O.3    401  U5P401      0.0000
     16 C5'        84.8860  -73.4290  -26.1520 C.3    401  U5P401      0.0000
     17 O5'        85.7740  -73.4930  -25.0470 O.3    401  U5P401      0.0000
     18 P          85.8460  -74.7860  -24.1170 P.3    401  U5P401      0.0000
     19 O1P        86.2200  -75.9140  -25.0600 O.co2  401  U5P401     -0.5000
     20 O2P        86.8460  -74.4510  -23.0250 O.co2  401  U5P401     -0.5000
     21 O3P        84.4390  -74.9420  -23.5670 O.co2  401  U5P401      0.0000
     22 H          88.2010  -70.8920  -22.6007 H      401  U5P401      0.0000
     23 H          86.6127  -71.4711  -24.4309 H      401  U5P401      0.0000
     24 H          85.5123  -69.1610  -26.9602 H      401  U5P401      0.0000
     25 H          87.7988  -70.3921  -28.0096 H      401  U5P401      0.0000
     26 H          86.1235  -70.9704  -29.6956 H      401  U5P401      0.0000
     27 H          87.3060  -72.4970  -26.8828 H      401  U5P401      0.0000
     28 H          84.3945  -72.1305  -27.7888 H      401  U5P401      0.0000
     29 H          87.5803  -73.1661  -28.9419 H      401  U5P401      0.0000
     30 H          84.9802  -74.3411  -26.7779 H      401  U5P401      0.0000
     31 H          83.8392  -73.3900  -25.7831 H      401  U5P401      0.0000
     32 H          84.1602  -74.0526  -22.9255 H      401  U5P401      0.0000
     33 H          89.0922  -67.3710  -24.7390 H      401  U5P401      0.0000
@<TRIPOS>BOND
     1     1     2   ar
     2     1     6   ar
     3     1     9    1
     4     2     3   ar
     5     2     7    2
     6     3     4   ar
     7     4     5   ar
     8     4     8    2
     9     5     6   ar
    10     5    22    1
    11     6    23    1
    12     9    10    1
    13     9    15    1
    14     9    24    1
    15    10    11    1
    16    10    12    1
    17    10    25    1
    18    11    26    1
    19    12    13    1
    20    12    14    1
    21    12    27    1
    22    13    15    1
    23    13    16    1
    24    13    28    1
    25    14    29    1
    26    16    17    1
    27    16    30    1
    28    16    31    1
    29    17    18    1
    30    18    19   ar
    31    18    20   ar
    32    18    21    1
    33    21    32    1
    34     3    33    1

