U5P_2_A_401
  -ISIS-            3D

 33 34  0  0  0  0  0  0  0  0  1 V2000
   47.0410  -40.4980  -25.5720 N   0  0  0  0  0
   47.7390  -41.6860  -25.6950 C   0  0  0  0  0
   47.5610  -42.5770  -24.6640 N   0  0  0  0  0
   46.7830  -42.3960  -23.5370 C   0  0  0  0  0
   46.0960  -41.1380  -23.4790 C   0  0  0  0  0
   46.2520  -40.2480  -24.4730 C   0  0  0  0  0
   48.4580  -41.9260  -26.6550 O   0  0  0  0  0
   46.7290  -43.2860  -22.6870 O   0  0  0  0  0
   47.2360  -39.4980  -26.6600 C   0  0  0  0  0
   46.3720  -39.7740  -27.8920 C   0  0  0  0  0
   47.0770  -39.3030  -29.0270 O   0  0  0  0  0
   45.1820  -38.8700  -27.6300 C   0  0  0  0  0
   45.8330  -37.6510  -26.9960 C   0  0  0  0  0
   44.4350  -38.5720  -28.7970 O   0  0  0  0  0
   46.8890  -38.2150  -26.1740 O   0  0  0  0  0
   44.9230  -36.7990  -26.1520 C   0  0  0  0  0
   44.4230  -37.5360  -25.0470 O   0  0  0  0  0
   43.2680  -36.9510  -24.1170 P   0  0  0  0  0
   42.1040  -36.7120  -25.0600 O   0  0  0  0  0
   43.0570  -37.9850  -23.0250 O   0  0  0  0  0
   43.8350  -35.6550  -23.5670 O   0  0  0  0  0
   45.4609  -40.9384  -22.6015 H   0  0  0  0  0
   45.7540  -39.2746  -24.4317 H   0  0  0  0  0
   48.3078  -39.4741  -26.9555 H   0  0  0  0  0
   46.0827  -40.8382  -28.0060 H   0  0  0  0  0
   47.6839  -39.9774  -29.3022 H   0  0  0  0  0
   44.5112  -39.3628  -26.8945 H   0  0  0  0  0
   46.2951  -37.0218  -27.7873 H   0  0  0  0  0
   45.0536  -38.5474  -29.5184 H   0  0  0  0  0
   44.0864  -36.4242  -26.7782 H   0  0  0  0  0
   45.4799  -35.9120  -25.7825 H   0  0  0  0  0
   43.0737  -35.1462  -22.9024 H   0  0  0  0  0
   48.0650  -43.4713  -24.7380 H   0  0  0  0  0
  1  2  1  0  0  0
  1  6  1  0  0  0
  1  9  1  0  0  0
  2  3  1  0  0  0
  2  7  2  0  0  0
  3  4  1  0  0  0
  4  5  1  0  0  0
  4  8  2  0  0  0
  5  6  2  0  0  0
  5 22  1  0  0  0
  6 23  1  0  0  0
  9 10  1  0  0  0
  9 15  1  0  0  0
  9 24  1  0  0  0
 10 11  1  0  0  0
 10 12  1  0  0  0
 10 25  1  0  0  0
 11 26  1  0  0  0
 12 13  1  0  0  0
 12 14  1  0  0  0
 12 27  1  0  0  0
 13 15  1  0  0  0
 13 16  1  0  0  0
 13 28  1  0  0  0
 14 29  1  0  0  0
 16 17  1  0  0  0
 16 30  1  0  0  0
 16 31  1  0  0  0
 17 18  1  0  0  0
 18 19  2  0  0  0
 18 20  2  0  0  0
 18 21  1  0  0  0
 21 32  1  0  0  0
  3 33  1  0  0  0
M  END
$$$$
