@<TRIPOS>MOLECULE
U5P_3_B_401
 33 34 0 0 0
SMALL
NO_CHARGES

@<TRIPOS>ATOM
      1 N1         98.2540  -26.0690   25.9510 N.ar   401  U5P401      0.0000
      2 C2         98.2400  -27.4480   26.0610 C.ar   401  U5P401      0.0000
      3 N3         98.8360  -28.1210   25.0240 N.ar   401  U5P401      0.0000
      4 C4         99.4240  -27.5650   23.9040 C.ar   401  U5P401      0.0000
      5 C5         99.3940  -26.1300   23.8590 C.ar   401  U5P401      0.0000
      6 C6         98.8180  -25.4470   24.8620 C.ar   401  U5P401      0.0000
      7 O2         97.7420  -28.0250   27.0160 O.2    401  U5P401      0.0000
      8 O4         99.9190  -28.3040   23.0540 O.2    401  U5P401      0.0000
      9 C1'        97.6010  -25.3090   27.0460 C.3    401  U5P401      0.0000
     10 C2'        98.5200  -25.0940   28.2540 C.3    401  U5P401      0.0000
     11 O2'        97.7090  -25.0450   29.4180 O.3    401  U5P401      0.0000
     12 C3'        99.0710  -23.7090   27.9560 C.3    401  U5P401      0.0000
     13 C4'        97.8670  -23.0040   27.3560 C.3    401  U5P401      0.0000
     14 O3'        99.6080  -23.0480   29.0880 O.3    401  U5P401      0.0000
     15 O4'        97.2310  -24.0340   26.5560 O.3    401  U5P401      0.0000
     16 C5'        98.1710  -21.8030   26.5030 C.3    401  U5P401      0.0000
     17 O5'        98.8980  -22.1710   25.3420 O.3    401  U5P401      0.0000
     18 P          99.6320  -21.0700   24.4540 P.3    401  U5P401      0.0000
     19 O1P       100.2320  -21.8440   23.2960 O.co2  401  U5P401     -0.5000
     20 O2P        98.5450  -20.1160   23.9940 O.co2  401  U5P401     -0.5000
     21 O3P       100.6910  -20.4930   25.3730 O.co2  401  U5P401      0.0000
     22 H          99.8475  -25.6320   22.9876 H      401  U5P401      0.0000
     23 H          98.7734  -24.3547   24.8344 H      401  U5P401      0.0000
     24 H          96.6767  -25.8348   27.3707 H      401  U5P401      0.0000
     25 H          99.3178  -25.8583   28.3477 H      401  U5P401      0.0000
     26 H          97.5442  -25.9337   29.7041 H      401  U5P401      0.0000
     27 H          99.8698  -23.7986   27.1892 H      401  U5P401      0.0000
     28 H          97.1712  -22.7053   28.1701 H      401  U5P401      0.0000
     29 H          99.0992  -23.3353   29.8378 H      401  U5P401      0.0000
     30 H          98.7417  -21.0633   27.1029 H      401  U5P401      0.0000
     31 H          97.2222  -21.3129   26.1978 H      401  U5P401      0.0000
     32 H         101.2796  -19.6913   24.8338 H      401  U5P401      0.0000
     33 H          98.8430  -29.1482   25.0870 H      401  U5P401      0.0000
@<TRIPOS>BOND
     1     1     2   ar
     2     1     6   ar
     3     1     9    1
     4     2     3   ar
     5     2     7    2
     6     3     4   ar
     7     4     5   ar
     8     4     8    2
     9     5     6   ar
    10     5    22    1
    11     6    23    1
    12     9    10    1
    13     9    15    1
    14     9    24    1
    15    10    11    1
    16    10    12    1
    17    10    25    1
    18    11    26    1
    19    12    13    1
    20    12    14    1
    21    12    27    1
    22    13    15    1
    23    13    16    1
    24    13    28    1
    25    14    29    1
    26    16    17    1
    27    16    30    1
    28    16    31    1
    29    17    18    1
    30    18    19   ar
    31    18    20   ar
    32    18    21    1
    33    21    32    1
    34     3    33    1

