@<TRIPOS>MOLECULE
K36_2_A_401
 60 61 0 0 0
SMALL
NO_CHARGES

@<TRIPOS>ATOM
      1 C7         -0.2160  -30.1630   45.7920 C.3    401  K36401      0.0000
      2 O8         -0.2360  -28.8790   46.4680 O.3    401  K36401      0.0000
      3 C9         -0.9150  -27.8920   45.8650 C.2    401  K36401      0.0000
      4 O10        -1.4890  -28.0040   44.8060 O.2    401  K36401      0.0000
      5 C1          0.6990  -30.1460   44.6000 C.ar   401  K36401      0.0000
      6 C2          1.7040  -29.2020   44.4880 C.ar   401  K36401      0.0000
      7 C3          2.5460  -29.1940   43.3870 C.ar   401  K36401      0.0000
      8 C4          2.3930  -30.1310   42.3940 C.ar   401  K36401      0.0000
      9 C5          1.3990  -31.0770   42.4940 C.ar   401  K36401      0.0000
     10 C6          0.5540  -31.0840   43.5930 C.ar   401  K36401      0.0000
     11 N11        -0.8760  -26.7730   46.6090 N.am   401  K36401      0.0000
     12 C12        -1.4690  -25.5370   46.1280 C.3    401  K36401      0.0000
     13 C17        -0.8060  -25.0390   44.8430 C.2    401  K36401      0.0000
     14 O18         0.4130  -25.1220   44.7010 O.2    401  K36401      0.0000
     15 C13        -1.4060  -24.4590   47.2080 C.3    401  K36401      0.0000
     16 C14        -2.1120  -24.8030   48.5190 C.3    401  K36401      0.0000
     17 C15        -1.9100  -23.7020   49.5480 C.3    401  K36401      0.0000
     18 C16        -3.5940  -25.0510   48.2880 C.3    401  K36401      0.0000
     19 N19        -1.6180  -24.5300   43.9110 N.am   401  K36401      0.0000
     20 C20        -1.1370  -23.9830   42.6410 C.3    401  K36401      0.0000
     21 C21        -1.5170  -22.5150   42.5480 C.3    401  K36401      0.0000
     22 O22        -1.0270  -21.9130   41.3720 O.3    401  K36401      0.0000
     23 C24        -1.7100  -24.7860   41.4690 C.3    401  K36401      0.0000
     24 C25        -1.1810  -26.2190   41.4650 C.3    401  K36401      0.0000
     25 C26         0.2970  -26.3990   41.1560 C.3    401  K36401      0.0000
     26 C27         0.3780  -27.8420   40.6840 C.3    401  K36401      0.0000
     27 N28        -0.9320  -28.0430   40.0740 N.am   401  K36401      0.0000
     28 C29        -1.8330  -27.1420   40.4520 C.2    401  K36401      0.0000
     29 O30        -3.0100  -27.0820   40.0610 O.2    401  K36401      0.0000
     30 H          -1.2414  -30.4691   45.4965 H      401  K36401      0.0000
     31 H           0.1465  -30.9356   46.5020 H      401  K36401      0.0000
     32 H           1.8516  -28.4403   45.2717 H      401  K36401      0.0000
     33 H           3.3409  -28.4323   43.3107 H      401  K36401      0.0000
     34 H           3.0659  -30.1253   41.5193 H      401  K36401      0.0000
     35 H           1.2729  -31.8314   41.6985 H      401  K36401      0.0000
     36 H          -0.2394  -31.8483   43.6578 H      401  K36401      0.0000
     37 H          -0.3797  -26.8015   47.5079 H      401  K36401      0.0000
     38 H          -2.5428  -25.7273   45.8932 H      401  K36401      0.0000
     39 H          -1.8388  -23.5158   46.7995 H      401  K36401      0.0000
     40 H          -0.3345  -24.2346   47.4216 H      401  K36401      0.0000
     41 H          -1.6665  -25.7363   48.9404 H      401  K36401      0.0000
     42 H          -2.3879  -23.9539   50.5213 H      401  K36401      0.0000
     43 H          -2.3422  -22.7332   49.2113 H      401  K36401      0.0000
     44 H          -0.8309  -23.5257   49.7568 H      401  K36401      0.0000
     45 H          -4.1323  -25.2211   49.2473 H      401  K36401      0.0000
     46 H          -3.7829  -25.9527   47.6655 H      401  K36401      0.0000
     47 H          -4.0896  -24.1895   47.7870 H      401  K36401      0.0000
     48 H          -2.6333  -24.5230   44.0798 H      401  K36401      0.0000
     49 H          -0.0248  -24.0371   42.5862 H      401  K36401      0.0000
     50 H          -1.1350  -21.9604   43.4332 H      401  K36401      0.0000
     51 H          -2.6225  -22.4063   42.5631 H      401  K36401      0.0000
     52 H          -0.1019  -21.7350   41.4800 H      401  K36401      0.0000
     53 H          -1.4489  -24.3005   40.5012 H      401  K36401      0.0000
     54 H          -2.8225  -24.7923   41.5323 H      401  K36401      0.0000
     55 H          -1.3875  -26.6729   42.4643 H      401  K36401      0.0000
     56 H           0.9519  -26.2118   42.0357 H      401  K36401      0.0000
     57 H           0.6075  -25.7093   40.3374 H      401  K36401      0.0000
     58 H           0.5174  -28.5269   41.5477 H      401  K36401      0.0000
     59 H           1.2172  -27.9950   39.9694 H      401  K36401      0.0000
     60 H          -1.1597  -28.7988   39.4155 H      401  K36401      0.0000
@<TRIPOS>BOND
     1     1     2    1
     2     1     5    1
     3     1    30    1
     4     1    31    1
     5     2     3    1
     6     3     4    2
     7     3    11    1
     8     5     6   ar
     9     5    10   ar
    10     6     7   ar
    11     6    32    1
    12     7     8   ar
    13     7    33    1
    14     8     9   ar
    15     8    34    1
    16     9    10   ar
    17     9    35    1
    18    10    36    1
    19    11    12    1
    20    11    37    1
    21    12    13    1
    22    12    15    1
    23    12    38    1
    24    13    14    2
    25    13    19    1
    26    15    16    1
    27    15    39    1
    28    15    40    1
    29    16    17    1
    30    16    18    1
    31    16    41    1
    32    17    42    1
    33    17    43    1
    34    17    44    1
    35    18    45    1
    36    18    46    1
    37    18    47    1
    38    19    20    1
    39    19    48    1
    40    20    21    1
    41    20    23    1
    42    20    49    1
    43    21    22    1
    44    21    50    1
    45    21    51    1
    46    22    52    1
    47    23    24    1
    48    23    53    1
    49    23    54    1
    50    24    25    1
    51    24    28    1
    52    24    55    1
    53    25    26    1
    54    25    56    1
    55    25    57    1
    56    26    27    1
    57    26    58    1
    58    26    59    1
    59    27    28    1
    60    27    60    1
    61    28    29    2

