K36_2_A_401
  -ISIS-            3D

 60 61  0  0  0  0  0  0  0  0  1 V2000
   -0.2160  -30.1630   45.7920 C   0  0  0  0  0
   -0.2360  -28.8790   46.4680 O   0  0  0  0  0
   -0.9150  -27.8920   45.8650 C   0  0  0  0  0
   -1.4890  -28.0040   44.8060 O   0  0  0  0  0
    0.6990  -30.1460   44.6000 C   0  0  0  0  0
    1.7040  -29.2020   44.4880 C   0  0  0  0  0
    2.5460  -29.1940   43.3870 C   0  0  0  0  0
    2.3930  -30.1310   42.3940 C   0  0  0  0  0
    1.3990  -31.0770   42.4940 C   0  0  0  0  0
    0.5540  -31.0840   43.5930 C   0  0  0  0  0
   -0.8760  -26.7730   46.6090 N   0  0  0  0  0
   -1.4690  -25.5370   46.1280 C   0  0  0  0  0
   -0.8060  -25.0390   44.8430 C   0  0  0  0  0
    0.4130  -25.1220   44.7010 O   0  0  0  0  0
   -1.4060  -24.4590   47.2080 C   0  0  0  0  0
   -2.1120  -24.8030   48.5190 C   0  0  0  0  0
   -1.9100  -23.7020   49.5480 C   0  0  0  0  0
   -3.5940  -25.0510   48.2880 C   0  0  0  0  0
   -1.6180  -24.5300   43.9110 N   0  0  0  0  0
   -1.1370  -23.9830   42.6410 C   0  0  0  0  0
   -1.5170  -22.5150   42.5480 C   0  0  0  0  0
   -1.0270  -21.9130   41.3720 O   0  0  0  0  0
   -1.7100  -24.7860   41.4690 C   0  0  0  0  0
   -1.1810  -26.2190   41.4650 C   0  0  0  0  0
    0.2970  -26.3990   41.1560 C   0  0  0  0  0
    0.3780  -27.8420   40.6840 C   0  0  0  0  0
   -0.9320  -28.0430   40.0740 N   0  0  0  0  0
   -1.8330  -27.1420   40.4520 C   0  0  0  0  0
   -3.0100  -27.0820   40.0610 O   0  0  0  0  0
   -1.2414  -30.4691   45.4965 H   0  0  0  0  0
    0.1465  -30.9356   46.5020 H   0  0  0  0  0
    1.8516  -28.4403   45.2717 H   0  0  0  0  0
    3.3409  -28.4323   43.3107 H   0  0  0  0  0
    3.0659  -30.1253   41.5193 H   0  0  0  0  0
    1.2729  -31.8314   41.6985 H   0  0  0  0  0
   -0.2394  -31.8483   43.6578 H   0  0  0  0  0
   -0.3797  -26.8015   47.5079 H   0  0  0  0  0
   -2.5428  -25.7273   45.8932 H   0  0  0  0  0
   -1.8388  -23.5158   46.7995 H   0  0  0  0  0
   -0.3345  -24.2346   47.4216 H   0  0  0  0  0
   -1.6665  -25.7363   48.9404 H   0  0  0  0  0
   -2.3879  -23.9539   50.5213 H   0  0  0  0  0
   -2.3422  -22.7332   49.2113 H   0  0  0  0  0
   -0.8309  -23.5257   49.7568 H   0  0  0  0  0
   -4.1323  -25.2211   49.2473 H   0  0  0  0  0
   -3.7829  -25.9527   47.6655 H   0  0  0  0  0
   -4.0896  -24.1895   47.7870 H   0  0  0  0  0
   -2.6333  -24.5230   44.0798 H   0  0  0  0  0
   -0.0248  -24.0371   42.5862 H   0  0  0  0  0
   -1.1350  -21.9604   43.4332 H   0  0  0  0  0
   -2.6225  -22.4063   42.5631 H   0  0  0  0  0
   -0.1019  -21.7350   41.4800 H   0  0  0  0  0
   -1.4489  -24.3005   40.5012 H   0  0  0  0  0
   -2.8225  -24.7923   41.5323 H   0  0  0  0  0
   -1.3875  -26.6729   42.4643 H   0  0  0  0  0
    0.9519  -26.2118   42.0357 H   0  0  0  0  0
    0.6075  -25.7093   40.3374 H   0  0  0  0  0
    0.5174  -28.5269   41.5477 H   0  0  0  0  0
    1.2172  -27.9950   39.9694 H   0  0  0  0  0
   -1.1597  -28.7988   39.4155 H   0  0  0  0  0
  1  2  1  0  0  0
  1  5  1  0  0  0
  1 30  1  0  0  0
  1 31  1  0  0  0
  2  3  1  0  0  0
  3  4  2  0  0  0
  3 11  1  0  0  0
  5  6  2  0  0  0
  5 10  1  0  0  0
  6  7  1  0  0  0
  6 32  1  0  0  0
  7  8  2  0  0  0
  7 33  1  0  0  0
  8  9  1  0  0  0
  8 34  1  0  0  0
  9 10  2  0  0  0
  9 35  1  0  0  0
 10 36  1  0  0  0
 11 12  1  0  0  0
 11 37  1  0  0  0
 12 13  1  0  0  0
 12 15  1  0  0  0
 12 38  1  0  0  0
 13 14  2  0  0  0
 13 19  1  0  0  0
 15 16  1  0  0  0
 15 39  1  0  0  0
 15 40  1  0  0  0
 16 17  1  0  0  0
 16 18  1  0  0  0
 16 41  1  0  0  0
 17 42  1  0  0  0
 17 43  1  0  0  0
 17 44  1  0  0  0
 18 45  1  0  0  0
 18 46  1  0  0  0
 18 47  1  0  0  0
 19 20  1  0  0  0
 19 48  1  0  0  0
 20 21  1  0  0  0
 20 23  1  0  0  0
 20 49  1  0  0  0
 21 22  1  0  0  0
 21 50  1  0  0  0
 21 51  1  0  0  0
 22 52  1  0  0  0
 23 24  1  0  0  0
 23 53  1  0  0  0
 23 54  1  0  0  0
 24 25  1  0  0  0
 24 28  1  0  0  0
 24 55  1  0  0  0
 25 26  1  0  0  0
 25 56  1  0  0  0
 25 57  1  0  0  0
 26 27  1  0  0  0
 26 58  1  0  0  0
 26 59  1  0  0  0
 27 28  1  0  0  0
 27 60  1  0  0  0
 28 29  2  0  0  0
M  END
$$$$
