HYN_1_A_401
  -ISIS-            3D

  8  8  0  0  0  0  0  0  0  0  1 V2000
   -1.1720   14.5190    2.0640 O   0  0  0  0  0
   -2.2420   14.8180    1.5310 C   0  0  0  0  0
   -3.5250   15.3460    2.1590 C   0  0  0  0  0
   -4.4010   15.4340    1.0150 N   0  0  0  0  0
   -2.5020   14.7060    0.1980 N   0  0  0  0  0
   -3.7950   15.0680   -0.1170 C   0  0  0  0  0
   -4.3020   15.0650   -1.2280 O   0  0  0  0  0
   -3.7030   15.5533    3.2164 H   0  0  0  0  0
  1  2  2  0  0  0
  2  3  1  0  0  0
  2  5  1  0  0  0
  3  4  1  0  0  0
  3  8  1  0  0  0
  4  6  1  0  0  0
  5  6  1  0  0  0
  6  7  2  0  0  0
M  END
$$$$
