@<TRIPOS>MOLECULE
HYN_1_A_401
 8 8 0 0 0
SMALL
NO_CHARGES

@<TRIPOS>ATOM
      1 O          -1.1720   14.5190    2.0640 O.2    401  HYN401      0.0000
      2 C          -2.2420   14.8180    1.5310 C.ar   401  HYN401      0.0000
      3 C1         -3.5250   15.3460    2.1590 C.ar   401  HYN401      0.0000
      4 N          -4.4010   15.4340    1.0150 N.ar   401  HYN401      0.0000
      5 N1         -2.5020   14.7060    0.1980 N.ar   401  HYN401      0.0000
      6 C2         -3.7950   15.0680   -0.1170 C.ar   401  HYN401      0.0000
      7 O1         -4.3020   15.0650   -1.2280 O.2    401  HYN401      0.0000
      8 H          -3.7030   15.5533    3.2164 H      401  HYN401      0.0000
@<TRIPOS>BOND
     1     1     2    2
     2     2     3   ar
     3     2     5   ar
     4     3     4   ar
     5     3     8    1
     6     4     6   ar
     7     5     6   ar
     8     6     7    2

