DMS_1_A_503
  -ISIS-            3D

 10  9  0  0  0  0  0  0  0  0  1 V2000
   -0.7290    9.4450   -7.1280 S   0  0  0  0  0
    0.0350    8.1910   -7.0550 O   0  0  0  0  0
   -2.3740    8.9590   -6.7860 C   0  0  0  0  0
   -1.0180    9.6990   -8.8340 C   0  0  0  0  0
   -3.0716    9.7963   -6.9929 H   0  0  0  0  0
   -2.4600    8.6906   -5.7130 H   0  0  0  0  0
   -2.6649    8.0780   -7.3944 H   0  0  0  0  0
   -1.7509   10.5187   -8.9805 H   0  0  0  0  0
   -1.3970    8.7747   -9.3165 H   0  0  0  0  0
   -0.0670    9.9890   -9.3260 H   0  0  0  0  0
  1  2  2  0  0  0
  1  3  1  0  0  0
  1  4  1  0  0  0
  3  5  1  0  0  0
  3  6  1  0  0  0
  3  7  1  0  0  0
  4  8  1  0  0  0
  4  9  1  0  0  0
  4 10  1  0  0  0
M  END
$$$$
