@<TRIPOS>MOLECULE
DMS_2_A_1004
 10 9 0 0 0
SMALL
NO_CHARGES

@<TRIPOS>ATOM
      1 S          -2.5220  -18.9150   -8.4410 S.o   1004  DMS1004      0.0000
      2 O          -3.7940  -18.6460   -9.1230 O.2   1004  DMS1004      0.0000
      3 C1         -1.3000  -18.0930   -9.4110 C.3   1004  DMS1004      0.0000
      4 C2         -2.1040  -20.5800   -8.8820 C.3   1004  DMS1004      0.0000
      5 H          -0.2867  -18.3765   -9.0601 H     1004  DMS1004      0.0000
      6 H          -1.4204  -16.9957   -9.3020 H     1004  DMS1004      0.0000
      7 H          -1.4069  -18.3620  -10.4821 H     1004  DMS1004      0.0000
      8 H          -1.0745  -20.8125   -8.5409 H     1004  DMS1004      0.0000
      9 H          -2.1685  -20.7189   -9.9809 H     1004  DMS1004      0.0000
     10 H          -2.8099  -21.2789   -8.3883 H     1004  DMS1004      0.0000
@<TRIPOS>BOND
     1     1     2    2
     2     1     3    1
     3     1     4    1
     4     3     5    1
     5     3     6    1
     6     3     7    1
     7     4     8    1
     8     4     9    1
     9     4    10    1

