@<TRIPOS>MOLECULE
DMS_2_A_1005
 10 9 0 0 0
SMALL
NO_CHARGES

@<TRIPOS>ATOM
      1 S         -21.6210   13.8660   -7.3250 S.o   1005  DMS1005      0.0000
      2 O         -22.9500   14.4830   -7.2560 O.2   1005  DMS1005      0.0000
      3 C1        -21.8920   12.3170   -8.1350 C.3   1005  DMS1005      0.0000
      4 C2        -21.3190   13.2730   -5.6860 C.3   1005  DMS1005      0.0000
      5 H         -20.9703   11.7019   -8.0869 H     1005  DMS1005      0.0000
      6 H         -22.1461   12.4975   -9.1996 H     1005  DMS1005      0.0000
      7 H         -22.7263   11.7673   -7.6525 H     1005  DMS1005      0.0000
      8 H         -20.4062   12.6429   -5.6770 H     1005  DMS1005      0.0000
      9 H         -22.1814   12.6760   -5.3241 H     1005  DMS1005      0.0000
     10 H         -21.1650   14.1349   -5.0049 H     1005  DMS1005      0.0000
@<TRIPOS>BOND
     1     1     2    2
     2     1     3    1
     3     1     4    1
     4     3     5    1
     5     3     6    1
     6     3     7    1
     7     4     8    1
     8     4     9    1
     9     4    10    1

