@<TRIPOS>MOLECULE
DMS_2_A_1003
 10 9 0 0 0
SMALL
NO_CHARGES

@<TRIPOS>ATOM
      1 S          -6.1070   -1.0120    6.4960 S.o   1003  DMS1003      0.0000
      2 O          -6.9380   -0.9630    7.7060 O.2   1003  DMS1003      0.0000
      3 C1         -7.2410   -1.0350    5.1520 C.3   1003  DMS1003      0.0000
      4 C2         -5.4840   -2.6500    6.4060 C.3   1003  DMS1003      0.0000
      5 H          -6.6951   -1.2096    4.2024 H     1003  DMS1003      0.0000
      6 H          -7.7610   -0.0572    5.0904 H     1003  DMS1003      0.0000
      7 H          -7.9947   -1.8366    5.2945 H     1003  DMS1003      0.0000
      8 H          -4.9608   -2.8010    5.4397 H     1003  DMS1003      0.0000
      9 H          -6.3107   -3.3846    6.4940 H     1003  DMS1003      0.0000
     10 H          -4.7631   -2.8173    7.2323 H     1003  DMS1003      0.0000
@<TRIPOS>BOND
     1     1     2    2
     2     1     3    1
     3     1     4    1
     4     3     5    1
     5     3     6    1
     6     3     7    1
     7     4     8    1
     8     4     9    1
     9     4    10    1

