@<TRIPOS>MOLECULE
DMS_1_A_202
 10 9 0 0 0
SMALL
NO_CHARGES

@<TRIPOS>ATOM
      1 S          -0.7750    9.5760   -7.8180 S.o    202  DMS202      0.0000
      2 O          -0.8200    9.4490   -9.2370 O.2    202  DMS202      0.0000
      3 C1          0.3330    8.3530   -7.2670 C.3    202  DMS202      0.0000
      4 C2         -2.1820    8.7430   -7.2520 C.3    202  DMS202      0.0000
      5 H           0.2933    8.2674   -6.1617 H      202  DMS202      0.0000
      6 H           1.3654    8.6382   -7.5561 H      202  DMS202      0.0000
      7 H           0.1011    7.3677   -7.7212 H      202  DMS202      0.0000
      8 H          -2.1512    8.6404   -6.1479 H      202  DMS202      0.0000
      9 H          -2.2662    7.7368   -7.7119 H      202  DMS202      0.0000
     10 H          -3.0864    9.3272   -7.5197 H      202  DMS202      0.0000
@<TRIPOS>BOND
     1     1     2    2
     2     1     3    1
     3     1     4    1
     4     3     5    1
     5     3     6    1
     6     3     7    1
     7     4     8    1
     8     4     9    1
     9     4    10    1

