FMT_1_B_4403
  -ISIS-            3D

  4  3  0  0  0  0  0  0  0  0  1 V2000
   49.5220    7.9420   -6.6340 C   0  0  0  0  0
   49.7420    7.9010   -7.8280 O   0  0  0  0  0
   50.3860    7.6460   -5.7070 O   0  0  0  0  0
   48.4693    8.2672   -6.2897 H   0  0  0  0  0
  1  2  2  0  0  0
  1  3  1  0  0  0
  1  4  1  0  0  0
M  END
$$$$
