FMT_1_A_7106
  -ISIS-            3D

  4  3  0  0  0  0  0  0  0  0  1 V2000
  104.7560   29.3730    3.7330 C   0  0  0  0  0
  104.2060   29.2220    4.8040 O   0  0  0  0  0
  104.5410   28.6490    2.6730 O   0  0  0  0  0
  105.5313   30.2233    3.6408 H   0  0  0  0  0
  1  2  2  0  0  0
  1  3  1  0  0  0
  1  4  1  0  0  0
M  END
$$$$
