@<TRIPOS>MOLECULE
FMT_1_A_7107
 3 2 0 0 0
SMALL
NO_CHARGES

@<TRIPOS>ATOM
      1 C          73.6590   39.1960    2.2580 C.2   7107  FMT7107      0.0000
      2 O1         73.6610   38.0740    2.7220 O.2   7107  FMT7107      0.0000
      3 O2         74.5780   39.6790    1.4780 O.2   7107  FMT7107     -0.5000
@<TRIPOS>BOND
     1     1     2   ar
     2     1     3   ar

