@<TRIPOS>MOLECULE
FMT_1_A_7108
 4 3 0 0 0
SMALL
NO_CHARGES

@<TRIPOS>ATOM
      1 C          78.9210   46.8580    3.1510 C.2   7108  FMT7108      0.0000
      2 O1         78.3930   46.0590    2.4060 O.2   7108  FMT7108     -0.5000
      3 O2         80.1690   47.2190    3.0950 O.3   7108  FMT7108     -0.5000
      4 H          78.2705   47.3380    3.9750 H     7108  FMT7108      0.0000
@<TRIPOS>BOND
     1     1     2   ar
     2     1     3   ar
     3     1     4    1

