@<TRIPOS>MOLECULE
DMS_2_A_407
 10 9 0 0 0
SMALL
NO_CHARGES

@<TRIPOS>ATOM
      1 S          -6.2090    0.3720  -18.2180 S.o    407  DMS407      0.0000
      2 O          -7.4080    1.1080  -17.7170 O.2    407  DMS407      0.0000
      3 C1         -5.0150    1.5610  -18.8960 C.3    407  DMS407      0.0000
      4 C2         -6.6300   -0.5040  -19.7520 C.3    407  DMS407      0.0000
      5 H          -4.1561    1.0150  -19.3370 H      407  DMS407      0.0000
      6 H          -4.6497    2.2171  -18.0797 H      407  DMS407      0.0000
      7 H          -5.5023    2.1820  -19.6754 H      407  DMS407      0.0000
      8 H          -5.7212   -0.9870  -20.1657 H      407  DMS407      0.0000
      9 H          -7.0432    0.2105  -20.4931 H      407  DMS407      0.0000
     10 H          -7.3884   -1.2827  -19.5312 H      407  DMS407      0.0000
@<TRIPOS>BOND
     1     1     2    2
     2     1     3    1
     3     1     4    1
     4     3     5    1
     5     3     6    1
     6     3     7    1
     7     4     8    1
     8     4     9    1
     9     4    10    1

