@<TRIPOS>MOLECULE
DMS_2_A_406
 10 9 0 0 0
SMALL
NO_CHARGES

@<TRIPOS>ATOM
      1 S          -6.2640   -1.0490    6.3510 S.o    406  DMS406      0.0000
      2 O          -7.1320   -0.5800    7.4770 O.2    406  DMS406      0.0000
      3 C1         -7.1440   -0.9200    4.7660 C.3    406  DMS406      0.0000
      4 C2         -5.9960   -2.8400    6.4350 C.3    406  DMS406      0.0000
      5 H          -6.4962   -1.3008    3.9502 H      406  DMS406      0.0000
      6 H          -7.3911    0.1436    4.5710 H      406  DMS406      0.0000
      7 H          -8.0800   -1.5138    4.8074 H      406  DMS406      0.0000
      8 H          -5.3807   -3.1642    5.5710 H      406  DMS406      0.0000
      9 H          -6.9720   -3.3668    6.4163 H      406  DMS406      0.0000
     10 H          -5.4633   -3.0861    7.3762 H      406  DMS406      0.0000
@<TRIPOS>BOND
     1     1     2    2
     2     1     3    1
     3     1     4    1
     4     3     5    1
     5     3     6    1
     6     3     7    1
     7     4     8    1
     8     4     9    1
     9     4    10    1

