@<TRIPOS>MOLECULE
DMS_1_A_402
 10 9 0 0 0
SMALL
NO_CHARGES

@<TRIPOS>ATOM
      1 S          -2.4630    4.4110   31.7480 S.o    402  DMS402      0.0000
      2 O          -2.5730    5.6870   30.9380 O.2    402  DMS402      0.0000
      3 C1         -4.0890    3.5760   31.8830 C.3    402  DMS402      0.0000
      4 C2         -1.9580    4.7860   33.4600 C.3    402  DMS402      0.0000
      5 H          -3.9759    2.6471   32.4783 H      402  DMS402      0.0000
      6 H          -4.4547    3.3225   30.8671 H      402  DMS402      0.0000
      7 H          -4.8126    4.2533   32.3809 H      402  DMS402      0.0000
      8 H          -1.8805    3.8411   34.0355 H      402  DMS402      0.0000
      9 H          -2.7112    5.4494   33.9321 H      402  DMS402      0.0000
     10 H          -0.9717    5.2931   33.4479 H      402  DMS402      0.0000
@<TRIPOS>BOND
     1     1     2    2
     2     1     3    1
     3     1     4    1
     4     3     5    1
     5     3     6    1
     6     3     7    1
     7     4     8    1
     8     4     9    1
     9     4    10    1

