@<TRIPOS>MOLECULE
DMS_1_A_405
 10 9 0 0 0
SMALL
NO_CHARGES

@<TRIPOS>ATOM
      1 S          24.9460   -7.7210   26.5290 S.o    405  DMS405      0.0000
      2 O          26.1160   -7.8930   27.4380 O.2    405  DMS405      0.0000
      3 C1         24.5410   -6.0680   26.4840 C.3    405  DMS405      0.0000
      4 C2         25.4250   -7.6050   24.9060 C.3    405  DMS405      0.0000
      5 H          23.7352   -5.8673   25.7483 H      405  DMS405      0.0000
      6 H          25.4201   -5.4293   26.2595 H      405  DMS405      0.0000
      7 H          24.1583   -5.7670   27.4810 H      405  DMS405      0.0000
      8 H          24.5688   -7.3513   24.2476 H      405  DMS405      0.0000
      9 H          25.8118   -8.5916   24.5774 H      405  DMS405      0.0000
     10 H          26.2399   -6.8658   24.7624 H      405  DMS405      0.0000
@<TRIPOS>BOND
     1     1     2    2
     2     1     3    1
     3     1     4    1
     4     3     5    1
     5     3     6    1
     6     3     7    1
     7     4     8    1
     8     4     9    1
     9     4    10    1

