DMS_2_A_1004
  -ISIS-            3D

 10  9  0  0  0  0  0  0  0  0  1 V2000
   -2.5220  -18.9150   -8.4410 S   0  0  0  0  0
   -3.7940  -18.6460   -9.1230 O   0  0  0  0  0
   -1.3000  -18.0930   -9.4110 C   0  0  0  0  0
   -2.1040  -20.5800   -8.8820 C   0  0  0  0  0
   -0.2867  -18.3765   -9.0601 H   0  0  0  0  0
   -1.4204  -16.9957   -9.3020 H   0  0  0  0  0
   -1.4069  -18.3620  -10.4821 H   0  0  0  0  0
   -1.0745  -20.8125   -8.5409 H   0  0  0  0  0
   -2.1685  -20.7189   -9.9809 H   0  0  0  0  0
   -2.8099  -21.2789   -8.3883 H   0  0  0  0  0
  1  2  2  0  0  0
  1  3  1  0  0  0
  1  4  1  0  0  0
  3  5  1  0  0  0
  3  6  1  0  0  0
  3  7  1  0  0  0
  4  8  1  0  0  0
  4  9  1  0  0  0
  4 10  1  0  0  0
M  END
$$$$
