@<TRIPOS>MOLECULE
DMS_1_A_1002
 10 9 0 0 0
SMALL
NO_CHARGES

@<TRIPOS>ATOM
      1 S           7.6480  -28.2990   21.0860 S.o   1002  DMS1002      0.0000
      2 O           8.2830  -27.4340   22.0750 O.2   1002  DMS1002      0.0000
      3 C1          6.3960  -29.1890   22.0060 C.3   1002  DMS1002      0.0000
      4 C2          6.6390  -27.2480   20.1060 C.3   1002  DMS1002      0.0000
      5 H           5.7647  -29.7737   21.3061 H     1002  DMS1002      0.0000
      6 H           5.7588  -28.4793   22.5726 H     1002  DMS1002      0.0000
      7 H           6.8873  -29.8852   22.7162 H     1002  DMS1002      0.0000
      8 H           6.0077  -27.8588   19.4288 H     1002  DMS1002      0.0000
      9 H           7.2823  -26.5838   19.4933 H     1002  DMS1002      0.0000
     10 H           5.9869  -26.6250   20.7520 H     1002  DMS1002      0.0000
@<TRIPOS>BOND
     1     1     2    2
     2     1     3    1
     3     1     4    1
     4     3     5    1
     5     3     6    1
     6     3     7    1
     7     4     8    1
     8     4     9    1
     9     4    10    1

