DMS_2_A_1002
  -ISIS-            3D

 10  9  0  0  0  0  0  0  0  0  1 V2000
   -7.6480  -28.2990  -21.0860 S   0  0  0  0  0
   -8.2830  -27.4340  -22.0750 O   0  0  0  0  0
   -6.3960  -29.1890  -22.0060 C   0  0  0  0  0
   -6.6390  -27.2480  -20.1060 C   0  0  0  0  0
   -5.7647  -29.7737  -21.3061 H   0  0  0  0  0
   -5.7588  -28.4793  -22.5726 H   0  0  0  0  0
   -6.8873  -29.8852  -22.7162 H   0  0  0  0  0
   -6.0077  -27.8588  -19.4288 H   0  0  0  0  0
   -7.2823  -26.5838  -19.4933 H   0  0  0  0  0
   -5.9869  -26.6250  -20.7520 H   0  0  0  0  0
  1  2  2  0  0  0
  1  3  1  0  0  0
  1  4  1  0  0  0
  3  5  1  0  0  0
  3  6  1  0  0  0
  3  7  1  0  0  0
  4  8  1  0  0  0
  4  9  1  0  0  0
  4 10  1  0  0  0
M  END
$$$$
