DMS_1_A_1003
  -ISIS-            3D

 10  9  0  0  0  0  0  0  0  0  1 V2000
    6.1070   -1.0120   -6.4960 S   0  0  0  0  0
    6.9380   -0.9630   -7.7060 O   0  0  0  0  0
    7.2410   -1.0350   -5.1520 C   0  0  0  0  0
    5.4840   -2.6500   -6.4060 C   0  0  0  0  0
    6.6951   -1.2096   -4.2024 H   0  0  0  0  0
    7.7610   -0.0572   -5.0904 H   0  0  0  0  0
    7.9947   -1.8366   -5.2945 H   0  0  0  0  0
    4.9608   -2.8010   -5.4397 H   0  0  0  0  0
    6.3107   -3.3846   -6.4940 H   0  0  0  0  0
    4.7631   -2.8173   -7.2323 H   0  0  0  0  0
  1  2  2  0  0  0
  1  3  1  0  0  0
  1  4  1  0  0  0
  3  5  1  0  0  0
  3  6  1  0  0  0
  3  7  1  0  0  0
  4  8  1  0  0  0
  4  9  1  0  0  0
  4 10  1  0  0  0
M  END
$$$$
