BHA_1_A_201
  -ISIS-            3D

 17 17  0  0  0  0  0  0  0  0  1 V2000
  -47.6260  -29.0500    2.7930 C   0  0  0  0  0
  -48.3120  -28.9900    1.7740 O   0  0  0  0  0
  -46.3680  -29.1040    2.6730 O   0  0  0  0  0
  -48.3560  -29.0880    4.1390 C   0  0  0  0  0
  -49.7390  -29.0180    4.1490 C   0  0  0  0  0
  -50.4510  -29.0730    5.3330 C   0  0  0  0  0
  -49.7820  -29.2230    6.5510 C   0  0  0  0  0
  -48.3790  -29.2960    6.5180 C   0  0  0  0  0
  -47.6900  -29.2310    5.3080 C   0  0  0  0  0
  -50.4280  -28.8830    2.9660 O   0  0  0  0  0
  -50.5360  -29.2690    7.7940 N   0  0  0  0  0
  -51.5512  -29.0033    5.3302 H   0  0  0  0  0
  -47.8163  -29.4065    7.4597 H   0  0  0  0  0
  -46.5890  -29.2990    5.3166 H   0  0  0  0  0
  -51.3694  -28.8466    3.0550 H   0  0  0  0  0
  -49.9824  -29.3692    8.6542 H   0  0  0  0  0
  -51.5586  -29.1983    7.7171 H   0  0  0  0  0
  1  2  2  0  0  0
  1  3  2  0  0  0
  1  4  1  0  0  0
  4  5  2  0  0  0
  4  9  1  0  0  0
  5  6  1  0  0  0
  5 10  1  0  0  0
  6  7  2  0  0  0
  6 12  1  0  0  0
  7  8  1  0  0  0
  7 11  1  0  0  0
  8  9  2  0  0  0
  8 13  1  0  0  0
  9 14  1  0  0  0
 10 15  1  0  0  0
 11 16  1  0  0  0
 11 17  1  0  0  0
M  END
$$$$
