@<TRIPOS>MOLECULE
DMS_2_A_402
 10 9 0 0 0
SMALL
NO_CHARGES

@<TRIPOS>ATOM
      1 S          -6.1380   -1.0030    6.2630 S.o    402  DMS402      0.0000
      2 O          -7.0490   -0.7780    7.4200 O.2    402  DMS402      0.0000
      3 C1         -7.1630   -0.8700    4.8100 C.3    402  DMS402      0.0000
      4 C2         -5.8640   -2.7470    6.1720 C.3    402  DMS402      0.0000
      5 H          -6.5843   -1.1692    3.9123 H      402  DMS402      0.0000
      6 H          -7.4912    0.1826    4.6893 H      402  DMS402      0.0000
      7 H          -8.0582   -1.5182    4.9067 H      402  DMS402      0.0000
      8 H          -5.3171   -2.9953    5.2395 H      402  DMS402      0.0000
      9 H          -6.8292   -3.2937    6.1909 H      402  DMS402      0.0000
     10 H          -5.2523   -3.0677    7.0399 H      402  DMS402      0.0000
@<TRIPOS>BOND
     1     1     2    2
     2     1     3    1
     3     1     4    1
     4     3     5    1
     5     3     6    1
     6     3     7    1
     7     4     8    1
     8     4     9    1
     9     4    10    1

