Q6T_1_A_201
  -ISIS-            3D

 17 18  0  0  0  0  0  0  0  0  1 V2000
  -43.6580  -29.5460    2.2460 O   0  0  0  0  0
  -44.8850  -29.6150    2.1590 C   0  0  0  0  0
  -45.4110  -29.9500    1.0760 O   0  0  0  0  0
  -45.7410  -29.3040    3.3960 C   0  0  0  0  0
  -45.2030  -29.4420    4.6830 C   0  0  0  0  0
  -45.9640  -29.1430    5.7740 C   0  0  0  0  0
  -45.2120  -29.3970    6.9270 O   0  0  0  0  0
  -43.8870  -29.5190    6.4870 C   0  0  0  0  0
  -43.9330  -29.8500    5.1410 O   0  0  0  0  0
  -47.2810  -28.7230    5.6300 C   0  0  0  0  0
  -47.8160  -28.5930    4.3730 C   0  0  0  0  0
  -47.0460  -28.8850    3.2650 C   0  0  0  0  0
  -43.3534  -30.2970    7.0643 H   0  0  0  0  0
  -43.3539  -28.5573    6.6226 H   0  0  0  0  0
  -47.8876  -28.5046    6.5242 H   0  0  0  0  0
  -48.8599  -28.2586    4.2486 H   0  0  0  0  0
  -47.4916  -28.7754    2.2616 H   0  0  0  0  0
  1  2  2  0  0  0
  2  3  2  0  0  0
  2  4  1  0  0  0
  4  5  2  0  0  0
  4 12  1  0  0  0
  5  6  1  0  0  0
  5  9  1  0  0  0
  6  7  1  0  0  0
  6 10  2  0  0  0
  7  8  1  0  0  0
  8  9  1  0  0  0
  8 13  1  0  0  0
  8 14  1  0  0  0
 10 11  1  0  0  0
 10 15  1  0  0  0
 11 12  2  0  0  0
 11 16  1  0  0  0
 12 17  1  0  0  0
M  END
$$$$
