ALD_1_A_502
  -ISIS-            3D

 77 77  0  0  0  0  0  0  0  0  1 V2000
   -3.8450  -21.8900   12.9380 C   0  0  0  0  0
   -2.8700  -21.4060   13.4150 O   0  0  0  0  0
   -4.6060  -22.8200   13.6040 O   0  0  0  0  0
   -4.0500  -23.2680   14.8220 C   0  0  0  0  0
   -3.1180  -24.4480   14.5410 C   0  0  0  0  0
   -3.6680  -25.6960   14.3130 C   0  0  0  0  0
   -2.8530  -26.7850   14.0950 C   0  0  0  0  0
   -1.4770  -26.6260   14.0920 C   0  0  0  0  0
   -0.9230  -25.3860   14.3230 C   0  0  0  0  0
   -1.7290  -24.2870   14.5670 C   0  0  0  0  0
   -4.3030  -21.5010   11.6410 N   0  0  0  0  0
   -3.5450  -20.5030   10.9100 C   0  0  0  0  0
   -4.3560  -19.2380   10.9240 C   0  0  0  0  0
   -5.5070  -19.2460   10.6450 O   0  0  0  0  0
   -3.4270  -20.9060    9.4600 C   0  0  0  0  0
   -2.4390  -22.0810    9.3680 C   0  0  0  0  0
   -2.2790  -22.5380    7.9270 C   0  0  0  0  0
   -1.0920  -21.7150   10.0090 C   0  0  0  0  0
   -3.6530  -18.0320   11.2080 N   0  0  0  0  0
   -4.3330  -16.7690   11.1990 C   0  0  0  0  0
   -4.4490  -16.2950    9.7700 C   0  0  0  0  0
   -3.4730  -16.1520    9.1170 O   0  0  0  0  0
   -3.5310  -15.7780   11.9900 C   0  0  0  0  0
   -3.3230  -16.2180   13.4370 C   0  0  0  0  0
   -4.6630  -16.2590   14.1870 C   0  0  0  0  0
   -2.3350  -15.2670   14.1180 C   0  0  0  0  0
   -5.7410  -16.0870    9.2090 N   0  0  0  0  0
   -5.8550  -15.6130    7.8600 C   0  0  0  0  0
   -6.3680  -14.2220    8.2050 C   0  0  0  0  0
   -6.9590  -16.3670    7.1390 C   0  0  0  0  0
   -6.8530  -17.8860    7.1420 C   0  0  0  0  0
   -8.0800  -18.5070    6.4380 C   0  0  0  0  0
   -5.5140  -18.3250    6.5910 C   0  0  0  0  0
   -6.5420  -13.6610    6.9400 O   0  0  0  0  0
   -4.8679  -23.6110   15.4896 H   0  0  0  0  0
   -3.5289  -22.4716   15.3906 H   0  0  0  0  0
   -4.7635  -25.8288   14.3060 H   0  0  0  0  0
   -3.2943  -27.7807   13.9173 H   0  0  0  0  0
   -0.8235  -27.4956   13.9061 H   0  0  0  0  0
    0.1742  -25.2672   14.3206 H   0  0  0  0  0
   -1.2771  -23.3013   14.7678 H   0  0  0  0  0
   -5.1673  -21.9027   11.2582 H   0  0  0  0  0
   -2.5574  -20.2871   11.3662 H   0  0  0  0  0
   -3.0441  -20.0519    8.8542 H   0  0  0  0  0
   -4.4166  -21.1912    9.0348 H   0  0  0  0  0
   -2.8620  -22.9444    9.9389 H   0  0  0  0  0
   -1.6116  -23.4252    7.8476 H   0  0  0  0  0
   -1.8421  -21.7395    7.2865 H   0  0  0  0  0
   -3.2545  -22.8265    7.4750 H   0  0  0  0  0
   -0.3119  -22.4640    9.7459 H   0  0  0  0  0
   -1.1231  -21.7012   11.1197 H   0  0  0  0  0
   -0.7146  -20.7278    9.6599 H   0  0  0  0  0
   -2.6412  -18.0702   11.3887 H   0  0  0  0  0
   -5.3542  -16.8576   11.6340 H   0  0  0  0  0
   -4.0372  -14.7848   11.9677 H   0  0  0  0  0
   -2.5366  -15.6296   11.5077 H   0  0  0  0  0
   -2.8741  -17.2395   13.4666 H   0  0  0  0  0
   -4.5127  -16.4812   15.2673 H   0  0  0  0  0
   -5.3434  -17.0484   13.7999 H   0  0  0  0  0
   -5.2050  -15.2889   14.1273 H   0  0  0  0  0
   -2.1438  -15.5639   15.1736 H   0  0  0  0  0
   -2.7110  -14.2196   14.1347 H   0  0  0  0  0
   -1.3481  -15.2570   13.6032 H   0  0  0  0  0
   -6.5771  -16.2922    9.7746 H   0  0  0  0  0
   -4.9004  -15.5927    7.2913 H   0  0  0  0  0
   -5.6368  -13.6297    8.7980 H   0  0  0  0  0
   -7.3370  -14.2235    8.7478 H   0  0  0  0  0
   -7.0012  -16.0167    6.0811 H   0  0  0  0  0
   -7.9447  -16.0964    7.5856 H   0  0  0  0  0
   -6.8965  -18.2304    8.2051 H   0  0  0  0  0
   -8.0474  -19.6190    6.4737 H   0  0  0  0  0
   -8.1299  -18.2136    5.3656 H   0  0  0  0  0
   -9.0353  -18.1935    6.9155 H   0  0  0  0  0
   -5.4364  -19.4349    6.5579 H   0  0  0  0  0
   -4.6585  -17.9709    7.2062 H   0  0  0  0  0
   -5.3528  -17.9587    5.5526 H   0  0  0  0  0
   -5.7359  -13.2383    6.6730 H   0  0  0  0  0
  1  2  2  0  0  0
  1  3  1  0  0  0
  1 11  1  0  0  0
  3  4  1  0  0  0
  4  5  1  0  0  0
  4 35  1  0  0  0
  4 36  1  0  0  0
  5  6  2  0  0  0
  5 10  1  0  0  0
  6  7  1  0  0  0
  6 37  1  0  0  0
  7  8  2  0  0  0
  7 38  1  0  0  0
  8  9  1  0  0  0
  8 39  1  0  0  0
  9 10  2  0  0  0
  9 40  1  0  0  0
 10 41  1  0  0  0
 11 12  1  0  0  0
 11 42  1  0  0  0
 12 13  1  0  0  0
 12 15  1  0  0  0
 12 43  1  0  0  0
 13 14  2  0  0  0
 13 19  1  0  0  0
 15 16  1  0  0  0
 15 44  1  0  0  0
 15 45  1  0  0  0
 16 17  1  0  0  0
 16 18  1  0  0  0
 16 46  1  0  0  0
 17 47  1  0  0  0
 17 48  1  0  0  0
 17 49  1  0  0  0
 18 50  1  0  0  0
 18 51  1  0  0  0
 18 52  1  0  0  0
 19 20  1  0  0  0
 19 53  1  0  0  0
 20 21  1  0  0  0
 20 23  1  0  0  0
 20 54  1  0  0  0
 21 22  2  0  0  0
 21 27  1  0  0  0
 23 24  1  0  0  0
 23 55  1  0  0  0
 23 56  1  0  0  0
 24 25  1  0  0  0
 24 26  1  0  0  0
 24 57  1  0  0  0
 25 58  1  0  0  0
 25 59  1  0  0  0
 25 60  1  0  0  0
 26 61  1  0  0  0
 26 62  1  0  0  0
 26 63  1  0  0  0
 27 28  1  0  0  0
 27 64  1  0  0  0
 28 29  1  0  0  0
 28 30  1  0  0  0
 28 65  1  0  0  0
 29 34  1  0  0  0
 29 66  1  0  0  0
 29 67  1  0  0  0
 30 31  1  0  0  0
 30 68  1  0  0  0
 30 69  1  0  0  0
 31 32  1  0  0  0
 31 33  1  0  0  0
 31 70  1  0  0  0
 32 71  1  0  0  0
 32 72  1  0  0  0
 32 73  1  0  0  0
 33 74  1  0  0  0
 33 75  1  0  0  0
 33 76  1  0  0  0
 34 77  1  0  0  0
M  END
$$$$
