@<TRIPOS>MOLECULE
ALD_1_A_502
 77 77 0 0 0
SMALL
NO_CHARGES

@<TRIPOS>ATOM
      1 C9         -3.8450  -21.8900   12.9380 C.2    502  ALD502      0.0000
      2 O31        -2.8700  -21.4060   13.4150 O.2    502  ALD502      0.0000
      3 O8         -4.6060  -22.8200   13.6040 O.3    502  ALD502      0.0000
      4 C7         -4.0500  -23.2680   14.8220 C.3    502  ALD502      0.0000
      5 C3         -3.1180  -24.4480   14.5410 C.ar   502  ALD502      0.0000
      6 C4         -3.6680  -25.6960   14.3130 C.ar   502  ALD502      0.0000
      7 C5         -2.8530  -26.7850   14.0950 C.ar   502  ALD502      0.0000
      8 C6         -1.4770  -26.6260   14.0920 C.ar   502  ALD502      0.0000
      9 C1         -0.9230  -25.3860   14.3230 C.ar   502  ALD502      0.0000
     10 C2         -1.7290  -24.2870   14.5670 C.ar   502  ALD502      0.0000
     11 N10        -4.3030  -21.5010   11.6410 N.am   502  ALD502      0.0000
     12 C11        -3.5450  -20.5030   10.9100 C.3    502  ALD502      0.0000
     13 C12        -4.3560  -19.2380   10.9240 C.2    502  ALD502      0.0000
     14 O32        -5.5070  -19.2460   10.6450 O.2    502  ALD502      0.0000
     15 C30        -3.4270  -20.9060    9.4600 C.3    502  ALD502      0.0000
     16 C31        -2.4390  -22.0810    9.3680 C.3    502  ALD502      0.0000
     17 C32        -2.2790  -22.5380    7.9270 C.3    502  ALD502      0.0000
     18 C33        -1.0920  -21.7150   10.0090 C.3    502  ALD502      0.0000
     19 N13        -3.6530  -18.0320   11.2080 N.am   502  ALD502      0.0000
     20 C14        -4.3330  -16.7690   11.1990 C.3    502  ALD502      0.0000
     21 C15        -4.4490  -16.2950    9.7700 C.2    502  ALD502      0.0000
     22 O34        -3.4730  -16.1520    9.1170 O.2    502  ALD502      0.0000
     23 C24        -3.5310  -15.7780   11.9900 C.3    502  ALD502      0.0000
     24 C25        -3.3230  -16.2180   13.4370 C.3    502  ALD502      0.0000
     25 C26        -4.6630  -16.2590   14.1870 C.3    502  ALD502      0.0000
     26 C27        -2.3350  -15.2670   14.1180 C.3    502  ALD502      0.0000
     27 N16        -5.7410  -16.0870    9.2090 N.am   502  ALD502      0.0000
     28 C17        -5.8550  -15.6130    7.8600 C.3    502  ALD502      0.0000
     29 C22        -6.3680  -14.2220    8.2050 C.3    502  ALD502      0.0000
     30 C18        -6.9590  -16.3670    7.1390 C.3    502  ALD502      0.0000
     31 C19        -6.8530  -17.8860    7.1420 C.3    502  ALD502      0.0000
     32 C20        -8.0800  -18.5070    6.4380 C.3    502  ALD502      0.0000
     33 C21        -5.5140  -18.3250    6.5910 C.3    502  ALD502      0.0000
     34 O33        -6.5420  -13.6610    6.9400 O.3    502  ALD502      0.0000
     35 H          -4.8679  -23.6110   15.4896 H      502  ALD502      0.0000
     36 H          -3.5289  -22.4716   15.3906 H      502  ALD502      0.0000
     37 H          -4.7635  -25.8288   14.3060 H      502  ALD502      0.0000
     38 H          -3.2943  -27.7807   13.9173 H      502  ALD502      0.0000
     39 H          -0.8235  -27.4956   13.9061 H      502  ALD502      0.0000
     40 H           0.1742  -25.2672   14.3206 H      502  ALD502      0.0000
     41 H          -1.2771  -23.3013   14.7678 H      502  ALD502      0.0000
     42 H          -5.1673  -21.9027   11.2582 H      502  ALD502      0.0000
     43 H          -2.5574  -20.2871   11.3662 H      502  ALD502      0.0000
     44 H          -3.0441  -20.0519    8.8542 H      502  ALD502      0.0000
     45 H          -4.4166  -21.1912    9.0348 H      502  ALD502      0.0000
     46 H          -2.8620  -22.9444    9.9389 H      502  ALD502      0.0000
     47 H          -1.6116  -23.4252    7.8476 H      502  ALD502      0.0000
     48 H          -1.8421  -21.7395    7.2865 H      502  ALD502      0.0000
     49 H          -3.2545  -22.8265    7.4750 H      502  ALD502      0.0000
     50 H          -0.3119  -22.4640    9.7459 H      502  ALD502      0.0000
     51 H          -1.1231  -21.7012   11.1197 H      502  ALD502      0.0000
     52 H          -0.7146  -20.7278    9.6599 H      502  ALD502      0.0000
     53 H          -2.6412  -18.0702   11.3887 H      502  ALD502      0.0000
     54 H          -5.3542  -16.8576   11.6340 H      502  ALD502      0.0000
     55 H          -4.0372  -14.7848   11.9677 H      502  ALD502      0.0000
     56 H          -2.5366  -15.6296   11.5077 H      502  ALD502      0.0000
     57 H          -2.8741  -17.2395   13.4666 H      502  ALD502      0.0000
     58 H          -4.5127  -16.4812   15.2673 H      502  ALD502      0.0000
     59 H          -5.3434  -17.0484   13.7999 H      502  ALD502      0.0000
     60 H          -5.2050  -15.2889   14.1273 H      502  ALD502      0.0000
     61 H          -2.1438  -15.5639   15.1736 H      502  ALD502      0.0000
     62 H          -2.7110  -14.2196   14.1347 H      502  ALD502      0.0000
     63 H          -1.3481  -15.2570   13.6032 H      502  ALD502      0.0000
     64 H          -6.5771  -16.2922    9.7746 H      502  ALD502      0.0000
     65 H          -4.9004  -15.5927    7.2913 H      502  ALD502      0.0000
     66 H          -5.6368  -13.6297    8.7980 H      502  ALD502      0.0000
     67 H          -7.3370  -14.2235    8.7478 H      502  ALD502      0.0000
     68 H          -7.0012  -16.0167    6.0811 H      502  ALD502      0.0000
     69 H          -7.9447  -16.0964    7.5856 H      502  ALD502      0.0000
     70 H          -6.8965  -18.2304    8.2051 H      502  ALD502      0.0000
     71 H          -8.0474  -19.6190    6.4737 H      502  ALD502      0.0000
     72 H          -8.1299  -18.2136    5.3656 H      502  ALD502      0.0000
     73 H          -9.0353  -18.1935    6.9155 H      502  ALD502      0.0000
     74 H          -5.4364  -19.4349    6.5579 H      502  ALD502      0.0000
     75 H          -4.6585  -17.9709    7.2062 H      502  ALD502      0.0000
     76 H          -5.3528  -17.9587    5.5526 H      502  ALD502      0.0000
     77 H          -5.7359  -13.2383    6.6730 H      502  ALD502      0.0000
@<TRIPOS>BOND
     1     1     2    2
     2     1     3    1
     3     1    11    1
     4     3     4    1
     5     4     5    1
     6     4    35    1
     7     4    36    1
     8     5     6   ar
     9     5    10   ar
    10     6     7   ar
    11     6    37    1
    12     7     8   ar
    13     7    38    1
    14     8     9   ar
    15     8    39    1
    16     9    10   ar
    17     9    40    1
    18    10    41    1
    19    11    12    1
    20    11    42    1
    21    12    13    1
    22    12    15    1
    23    12    43    1
    24    13    14    2
    25    13    19    1
    26    15    16    1
    27    15    44    1
    28    15    45    1
    29    16    17    1
    30    16    18    1
    31    16    46    1
    32    17    47    1
    33    17    48    1
    34    17    49    1
    35    18    50    1
    36    18    51    1
    37    18    52    1
    38    19    20    1
    39    19    53    1
    40    20    21    1
    41    20    23    1
    42    20    54    1
    43    21    22    2
    44    21    27    1
    45    23    24    1
    46    23    55    1
    47    23    56    1
    48    24    25    1
    49    24    26    1
    50    24    57    1
    51    25    58    1
    52    25    59    1
    53    25    60    1
    54    26    61    1
    55    26    62    1
    56    26    63    1
    57    27    28    1
    58    27    64    1
    59    28    29    1
    60    28    30    1
    61    28    65    1
    62    29    34    1
    63    29    66    1
    64    29    67    1
    65    30    31    1
    66    30    68    1
    67    30    69    1
    68    31    32    1
    69    31    33    1
    70    31    70    1
    71    32    71    1
    72    32    72    1
    73    32    73    1
    74    33    74    1
    75    33    75    1
    76    33    76    1
    77    34    77    1

