@<TRIPOS>MOLECULE
ALD_1_B_505
 77 77 0 0 0
SMALL
NO_CHARGES

@<TRIPOS>ATOM
      1 C9        -45.8670  -22.0170  -18.1320 C.2    505  ALD505      0.0000
      2 O31       -46.7960  -21.4900  -18.6870 O.2    505  ALD505      0.0000
      3 O8        -45.0940  -22.9880  -18.7370 O.3    505  ALD505      0.0000
      4 C7        -45.5890  -23.3980  -19.9860 C.3    505  ALD505      0.0000
      5 C3        -46.5080  -24.5990  -19.7920 C.ar   505  ALD505      0.0000
      6 C4        -45.9290  -25.8230  -19.5580 C.ar   505  ALD505      0.0000
      7 C5        -46.7310  -26.9410  -19.4040 C.ar   505  ALD505      0.0000
      8 C6        -48.1150  -26.8410  -19.4420 C.ar   505  ALD505      0.0000
      9 C1        -48.7020  -25.6070  -19.6520 C.ar   505  ALD505      0.0000
     10 C2        -47.8950  -24.4750  -19.8160 C.ar   505  ALD505      0.0000
     11 N10       -45.4910  -21.6360  -16.8000 N.am   505  ALD505      0.0000
     12 C11       -46.2180  -20.5650  -16.1600 C.3    505  ALD505      0.0000
     13 C12       -45.3570  -19.2970  -16.1820 C.2    505  ALD505      0.0000
     14 O32       -44.1840  -19.3390  -15.9460 O.2    505  ALD505      0.0000
     15 C30       -46.3860  -20.8730  -14.6850 C.3    505  ALD505      0.0000
     16 C31       -47.2410  -22.1210  -14.4550 C.3    505  ALD505      0.0000
     17 C32       -47.3450  -22.4160  -12.9700 C.3    505  ALD505      0.0000
     18 C33       -48.6320  -21.8690  -15.0410 C.3    505  ALD505      0.0000
     19 N13       -46.0560  -18.0870  -16.4720 N.am   505  ALD505      0.0000
     20 C14       -45.4260  -16.7970  -16.4620 C.3    505  ALD505      0.0000
     21 C15       -45.4120  -16.3900  -15.0200 C.2    505  ALD505      0.0000
     22 O34       -46.4010  -16.2460  -14.3760 O.2    505  ALD505      0.0000
     23 C24       -46.1420  -15.7990  -17.3440 C.3    505  ALD505      0.0000
     24 C25       -46.2840  -16.2660  -18.7860 C.3    505  ALD505      0.0000
     25 C26       -44.9250  -16.3330  -19.4700 C.3    505  ALD505      0.0000
     26 C27       -47.2450  -15.4310  -19.6130 C.3    505  ALD505      0.0000
     27 N16       -44.1530  -16.2410  -14.4090 N.am   505  ALD505      0.0000
     28 C17       -44.0920  -15.8360  -13.0580 C.3    505  ALD505      0.0000
     29 C22       -43.5820  -14.4610  -13.4000 C.3    505  ALD505      0.0000
     30 C18       -42.9830  -16.5910  -12.3480 C.3    505  ALD505      0.0000
     31 C19       -43.2620  -18.0840  -12.1150 C.3    505  ALD505      0.0000
     32 C20       -42.1230  -18.5910  -11.2040 C.3    505  ALD505      0.0000
     33 C21       -44.6650  -18.2830  -11.5530 C.3    505  ALD505      0.0000
     34 O33       -43.5480  -13.7640  -12.1860 O.3    505  ALD505      0.0000
     35 H         -44.7364  -23.7048  -20.6277 H      505  ALD505      0.0000
     36 H         -46.0977  -22.5968  -20.5585 H      505  ALD505      0.0000
     37 H         -44.8320  -25.9280  -19.5038 H      505  ALD505      0.0000
     38 H         -46.2631  -27.9268  -19.2386 H      505  ALD505      0.0000
     39 H         -48.7413  -27.7392  -19.3080 H      505  ALD505      0.0000
     40 H         -49.8005  -25.5118  -19.6851 H      505  ALD505      0.0000
     41 H         -48.3645  -23.4894  -19.9726 H      505  ALD505      0.0000
     42 H         -44.6931  -22.0940  -16.3430 H      505  ALD505      0.0000
     43 H         -47.1974  -20.3575  -16.6419 H      505  ALD505      0.0000
     44 H         -46.8527  -20.0002  -14.1709 H      505  ALD505      0.0000
     45 H         -45.3884  -21.0196  -14.2084 H      505  ALD505      0.0000
     46 H         -46.7800  -23.0021  -14.9623 H      505  ALD505      0.0000
     47 H         -47.9547  -23.3263  -12.7732 H      505  ALD505      0.0000
     48 H         -47.8153  -21.5783  -12.4079 H      505  ALD505      0.0000
     49 H         -46.3450  -22.5959  -12.5154 H      505  ALD505      0.0000
     50 H         -49.3366  -22.6851  -14.7645 H      505  ALD505      0.0000
     51 H         -48.6313  -21.8363  -16.1520 H      505  ALD505      0.0000
     52 H         -49.0819  -20.9193  -14.6745 H      505  ALD505      0.0000
     53 H         -47.0665  -18.1363  -16.6582 H      505  ALD505      0.0000
     54 H         -44.3732  -16.8812  -16.8175 H      505  ALD505      0.0000
     55 H         -45.6114  -14.8194  -17.3120 H      505  ALD505      0.0000
     56 H         -47.1589  -15.6121  -16.9262 H      505  ALD505      0.0000
     57 H         -46.7027  -17.3024  -18.7795 H      505  ALD505      0.0000
     58 H         -45.0178  -16.6465  -20.5340 H      505  ALD505      0.0000
     59 H         -44.2414  -17.0672  -18.9908 H      505  ALD505      0.0000
     60 H         -44.4081  -15.3474  -19.4668 H      505  ALD505      0.0000
     61 H         -47.3583  -15.8275  -20.6470 H      505  ALD505      0.0000
     62 H         -46.9039  -14.3751  -19.6999 H      505  ALD505      0.0000
     63 H         -48.2629  -15.4102  -19.1630 H      505  ALD505      0.0000
     64 H         -43.2984  -16.4507  -14.9451 H      505  ALD505      0.0000
     65 H         -45.0564  -15.8111  -12.5094 H      505  ALD505      0.0000
     66 H         -44.2476  -13.9184  -14.1093 H      505  ALD505      0.0000
     67 H         -42.5618  -14.4627  -13.8415 H      505  ALD505      0.0000
     68 H         -42.8196  -16.1062  -11.3568 H      505  ALD505      0.0000
     69 H         -42.0203  -16.4867  -12.9011 H      505  ALD505      0.0000
     70 H         -43.1967  -18.6224  -13.0920 H      505  ALD505      0.0000
     71 H         -42.2137  -19.6855  -11.0229 H      505  ALD505      0.0000
     72 H         -42.1322  -18.0953  -10.2076 H      505  ALD505      0.0000
     73 H         -41.1200  -18.4208  -11.6556 H      505  ALD505      0.0000
     74 H         -44.8302  -19.3453  -11.2647 H      505  ALD505      0.0000
     75 H         -45.4599  -18.0361  -12.2900 H      505  ALD505      0.0000
     76 H         -44.8416  -17.6700  -10.6412 H      505  ALD505      0.0000
     77 H         -44.4134  -13.4231  -12.0000 H      505  ALD505      0.0000
@<TRIPOS>BOND
     1     1     2    2
     2     1     3    1
     3     1    11    1
     4     3     4    1
     5     4     5    1
     6     4    35    1
     7     4    36    1
     8     5     6   ar
     9     5    10   ar
    10     6     7   ar
    11     6    37    1
    12     7     8   ar
    13     7    38    1
    14     8     9   ar
    15     8    39    1
    16     9    10   ar
    17     9    40    1
    18    10    41    1
    19    11    12    1
    20    11    42    1
    21    12    13    1
    22    12    15    1
    23    12    43    1
    24    13    14    2
    25    13    19    1
    26    15    16    1
    27    15    44    1
    28    15    45    1
    29    16    17    1
    30    16    18    1
    31    16    46    1
    32    17    47    1
    33    17    48    1
    34    17    49    1
    35    18    50    1
    36    18    51    1
    37    18    52    1
    38    19    20    1
    39    19    53    1
    40    20    21    1
    41    20    23    1
    42    20    54    1
    43    21    22    2
    44    21    27    1
    45    23    24    1
    46    23    55    1
    47    23    56    1
    48    24    25    1
    49    24    26    1
    50    24    57    1
    51    25    58    1
    52    25    59    1
    53    25    60    1
    54    26    61    1
    55    26    62    1
    56    26    63    1
    57    27    28    1
    58    27    64    1
    59    28    29    1
    60    28    30    1
    61    28    65    1
    62    29    34    1
    63    29    66    1
    64    29    67    1
    65    30    31    1
    66    30    68    1
    67    30    69    1
    68    31    32    1
    69    31    33    1
    70    31    70    1
    71    32    71    1
    72    32    72    1
    73    32    73    1
    74    33    74    1
    75    33    75    1
    76    33    76    1
    77    34    77    1

