@<TRIPOS>MOLECULE
PGE_1_A_2001
 24 23 0 0 0
SMALL
NO_CHARGES

@<TRIPOS>ATOM
      1 C1         11.1550    6.2910   65.8020 C.3   2001  PGE2001      0.0000
      2 O1         10.5610    7.1050   64.7990 O.3   2001  PGE2001      0.0000
      3 C2         12.6580    6.2770   65.6070 C.3   2001  PGE2001      0.0000
      4 O2         12.9790    5.5100   64.4640 O.3   2001  PGE2001      0.0000
      5 C3         14.3030    5.7070   64.0120 C.3   2001  PGE2001      0.0000
      6 C4         14.6130    4.6720   62.9480 C.3   2001  PGE2001      0.0000
      7 O4         11.4170    2.8650   60.3960 O.3   2001  PGE2001      0.0000
      8 C6         12.3240    3.9400   60.1930 C.3   2001  PGE2001      0.0000
      9 C5         13.5370    3.7290   61.0750 C.3   2001  PGE2001      0.0000
     10 O3         13.7790    4.9000   61.8290 O.3   2001  PGE2001      0.0000
     11 H          10.7311    5.2658   65.7643 H     2001  PGE2001      0.0000
     12 H          10.9004    6.7145   66.7957 H     2001  PGE2001      0.0000
     13 H          10.8289    6.7474   63.9606 H     2001  PGE2001      0.0000
     14 H          13.1526    5.8318   66.4958 H     2001  PGE2001      0.0000
     15 H          13.0348    7.3163   65.5027 H     2001  PGE2001      0.0000
     16 H          15.0141    5.5930   64.8575 H     2001  PGE2001      0.0000
     17 H          14.4210    6.7332   63.6057 H     2001  PGE2001      0.0000
     18 H          14.4566    3.6590   63.3736 H     2001  PGE2001      0.0000
     19 H          15.6751    4.7379   62.6328 H     2001  PGE2001      0.0000
     20 H          10.6361    3.0322   59.8850 H     2001  PGE2001      0.0000
     21 H          11.8159    4.8966   60.4386 H     2001  PGE2001      0.0000
     22 H          12.6190    3.9876   59.1237 H     2001  PGE2001      0.0000
     23 H          14.4326    3.4809   60.4684 H     2001  PGE2001      0.0000
     24 H          13.3520    2.8690   61.7520 H     2001  PGE2001      0.0000
@<TRIPOS>BOND
     1     1     2    1
     2     1     3    1
     3     1    11    1
     4     1    12    1
     5     2    13    1
     6     3     4    1
     7     3    14    1
     8     3    15    1
     9     4     5    1
    10     5     6    1
    11     5    16    1
    12     5    17    1
    13     6    10    1
    14     6    18    1
    15     6    19    1
    16     7     8    1
    17     7    20    1
    18     8     9    1
    19     8    21    1
    20     8    22    1
    21     9    10    1
    22     9    23    1
    23     9    24    1

