@<TRIPOS>MOLECULE
PGE_3_A_2001
 24 23 0 0 0
SMALL
NO_CHARGES

@<TRIPOS>ATOM
      1 C1         21.6260   24.8750   65.8020 C.3   2001  PGE2001      0.0000
      2 O1         22.6280   24.9820   64.7990 O.3   2001  PGE2001      0.0000
      3 C2         20.8620   23.5800   65.6070 C.3   2001  PGE2001      0.0000
      4 O2         20.0370   23.6860   64.4640 O.3   2001  PGE2001      0.0000
      5 C3         19.5460   22.4410   64.0120 C.3   2001  PGE2001      0.0000
      6 C4         18.4950   22.6890   62.9480 C.3   2001  PGE2001      0.0000
      7 O4         18.5280   26.3610   60.3960 O.3   2001  PGE2001      0.0000
      8 C6         19.0050   25.0380   60.1930 C.3   2001  PGE2001      0.0000
      9 C5         18.2160   24.0930   61.0750 C.3   2001  PGE2001      0.0000
     10 O3         19.1090   23.2980   61.8290 O.3   2001  PGE2001      0.0000
     11 H          20.9389   25.7462   65.7552 H     2001  PGE2001      0.0000
     12 H          22.1112   24.8865   66.8010 H     2001  PGE2001      0.0000
     13 H          22.9730   25.8651   64.8126 H     2001  PGE2001      0.0000
     14 H          20.2299   23.3725   66.4960 H     2001  PGE2001      0.0000
     15 H          21.5753   22.7359   65.5002 H     2001  PGE2001      0.0000
     16 H          19.0918   21.8821   64.8575 H     2001  PGE2001      0.0000
     17 H          20.3760   21.8258   63.6060 H     2001  PGE2001      0.0000
     18 H          17.6951   23.3302   63.3733 H     2001  PGE2001      0.0000
     19 H          18.0220   21.7358   62.6325 H     2001  PGE2001      0.0000
     20 H          19.0888   26.9565   59.9168 H     2001  PGE2001      0.0000
     21 H          20.0875   24.9986   60.4385 H     2001  PGE2001      0.0000
     22 H          18.8986   24.7596   59.1235 H     2001  PGE2001      0.0000
     23 H          17.5534   23.4414   60.4684 H     2001  PGE2001      0.0000
     24 H          17.5637   24.6831   61.7520 H     2001  PGE2001      0.0000
@<TRIPOS>BOND
     1     1     2    1
     2     1     3    1
     3     1    11    1
     4     1    12    1
     5     2    13    1
     6     3     4    1
     7     3    14    1
     8     3    15    1
     9     4     5    1
    10     5     6    1
    11     5    16    1
    12     5    17    1
    13     6    10    1
    14     6    18    1
    15     6    19    1
    16     7     8    1
    17     7    20    1
    18     8     9    1
    19     8    21    1
    20     8    22    1
    21     9    10    1
    22     9    23    1
    23     9    24    1

