PGE_3_A_2001
  -ISIS-            3D

 24 23  0  0  0  0  0  0  0  0  1 V2000
   21.6260   24.8750   65.8020 C   0  0  0  0  0
   22.6280   24.9820   64.7990 O   0  0  0  0  0
   20.8620   23.5800   65.6070 C   0  0  0  0  0
   20.0370   23.6860   64.4640 O   0  0  0  0  0
   19.5460   22.4410   64.0120 C   0  0  0  0  0
   18.4950   22.6890   62.9480 C   0  0  0  0  0
   18.5280   26.3610   60.3960 O   0  0  0  0  0
   19.0050   25.0380   60.1930 C   0  0  0  0  0
   18.2160   24.0930   61.0750 C   0  0  0  0  0
   19.1090   23.2980   61.8290 O   0  0  0  0  0
   20.9389   25.7462   65.7552 H   0  0  0  0  0
   22.1112   24.8865   66.8010 H   0  0  0  0  0
   22.9730   25.8651   64.8126 H   0  0  0  0  0
   20.2299   23.3725   66.4960 H   0  0  0  0  0
   21.5753   22.7359   65.5002 H   0  0  0  0  0
   19.0918   21.8821   64.8575 H   0  0  0  0  0
   20.3760   21.8258   63.6060 H   0  0  0  0  0
   17.6951   23.3302   63.3733 H   0  0  0  0  0
   18.0220   21.7358   62.6325 H   0  0  0  0  0
   19.0888   26.9565   59.9168 H   0  0  0  0  0
   20.0875   24.9986   60.4385 H   0  0  0  0  0
   18.8986   24.7596   59.1235 H   0  0  0  0  0
   17.5534   23.4414   60.4684 H   0  0  0  0  0
   17.5637   24.6831   61.7520 H   0  0  0  0  0
  1  2  1  0  0  0
  1  3  1  0  0  0
  1 11  1  0  0  0
  1 12  1  0  0  0
  2 13  1  0  0  0
  3  4  1  0  0  0
  3 14  1  0  0  0
  3 15  1  0  0  0
  4  5  1  0  0  0
  5  6  1  0  0  0
  5 16  1  0  0  0
  5 17  1  0  0  0
  6 10  1  0  0  0
  6 18  1  0  0  0
  6 19  1  0  0  0
  7  8  1  0  0  0
  7 20  1  0  0  0
  8  9  1  0  0  0
  8 21  1  0  0  0
  8 22  1  0  0  0
  9 10  1  0  0  0
  9 23  1  0  0  0
  9 24  1  0  0  0
M  END
$$$$
