@<TRIPOS>MOLECULE
DMS_2_A_402
 10 9 0 0 0
SMALL
NO_CHARGES

@<TRIPOS>ATOM
      1 S          -7.1110  -28.1000  -21.5930 S.o    402  DMS402      0.0000
      2 O          -7.8040  -27.0900  -22.3970 O.2    402  DMS402      0.0000
      3 C1         -6.0580  -27.1820  -20.4980 C.3    402  DMS402      0.0000
      4 C2         -5.8090  -28.7360  -22.6580 C.3    402  DMS402      0.0000
      5 H          -5.3727  -27.8738  -19.9669 H      402  DMS402      0.0000
      6 H          -6.6812  -26.6522  -19.7488 H      402  DMS402      0.0000
      7 H          -5.4635  -26.4363  -21.0647 H      402  DMS402      0.0000
      8 H          -5.1309  -29.3890  -22.0715 H      402  DMS402      0.0000
      9 H          -5.2288  -27.9002  -23.1003 H      402  DMS402      0.0000
     10 H          -6.2648  -29.3327  -23.4745 H      402  DMS402      0.0000
@<TRIPOS>BOND
     1     1     2    2
     2     1     3    1
     3     1     4    1
     4     3     5    1
     5     3     6    1
     6     3     7    1
     7     4     8    1
     8     4     9    1
     9     4    10    1

