@<TRIPOS>MOLECULE
DMS_1_A_404
 10 9 0 0 0
SMALL
NO_CHARGES

@<TRIPOS>ATOM
      1 S          21.4570   14.6690    8.1200 S.o    404  DMS404      0.0000
      2 O          22.9440   14.4830    7.9650 O.2    404  DMS404      0.0000
      3 C1         20.9130   13.4050    9.2370 C.3    404  DMS404      0.0000
      4 C2         20.7640   13.9880    6.6260 C.3    404  DMS404      0.0000
      5 H          19.8042   13.3805    9.2666 H      404  DMS404      0.0000
      6 H          21.2930   13.6274   10.2551 H      404  DMS404      0.0000
      7 H          21.2960   12.4144    8.9176 H      404  DMS404      0.0000
      8 H          19.6588   13.9435    6.7110 H      404  DMS404      0.0000
      9 H          21.1621   12.9690    6.4440 H      404  DMS404      0.0000
     10 H          21.0311   14.6389    5.7687 H      404  DMS404      0.0000
@<TRIPOS>BOND
     1     1     2    2
     2     1     3    1
     3     1     4    1
     4     3     5    1
     5     3     6    1
     6     3     7    1
     7     4     8    1
     8     4     9    1
     9     4    10    1

