@<TRIPOS>MOLECULE
DMS_1_A_401
 10 9 0 0 0
SMALL
NO_CHARGES

@<TRIPOS>ATOM
      1 S          24.8550   -3.5950   20.2940 S.o    401  DMS401      0.0000
      2 O          25.1500   -4.6830   19.2840 O.2    401  DMS401      0.0000
      3 C1         26.2090   -2.4450   20.2290 C.3    401  DMS401      0.0000
      4 C2         25.1780   -4.2830   21.8970 C.3    401  DMS401      0.0000
      5 H          26.1052   -1.6956   21.0403 H      401  DMS401      0.0000
      6 H          26.1971   -1.9199   19.2519 H      401  DMS401      0.0000
      7 H          27.1743   -2.9797   20.3404 H      401  DMS401      0.0000
      8 H          25.0994   -3.4907   22.6694 H      401  DMS401      0.0000
      9 H          26.1926   -4.7298   21.9276 H      401  DMS401      0.0000
     10 H          24.4292   -5.0716   22.1152 H      401  DMS401      0.0000
@<TRIPOS>BOND
     1     1     2    2
     2     1     3    1
     3     1     4    1
     4     3     5    1
     5     3     6    1
     6     3     7    1
     7     4     8    1
     8     4     9    1
     9     4    10    1

