DMS_1_A_404
  -ISIS-            3D

 10  9  0  0  0  0  0  0  0  0  1 V2000
   21.4570   14.6690    8.1200 S   0  0  0  0  0
   22.9440   14.4830    7.9650 O   0  0  0  0  0
   20.9130   13.4050    9.2370 C   0  0  0  0  0
   20.7640   13.9880    6.6260 C   0  0  0  0  0
   19.8042   13.3805    9.2666 H   0  0  0  0  0
   21.2930   13.6274   10.2551 H   0  0  0  0  0
   21.2960   12.4144    8.9176 H   0  0  0  0  0
   19.6588   13.9435    6.7110 H   0  0  0  0  0
   21.1621   12.9690    6.4440 H   0  0  0  0  0
   21.0311   14.6389    5.7687 H   0  0  0  0  0
  1  2  2  0  0  0
  1  3  1  0  0  0
  1  4  1  0  0  0
  3  5  1  0  0  0
  3  6  1  0  0  0
  3  7  1  0  0  0
  4  8  1  0  0  0
  4  9  1  0  0  0
  4 10  1  0  0  0
M  END
$$$$
