FMT_2_A_407
  -ISIS-            3D

  4  3  0  0  0  0  0  0  0  0  1 V2000
   -6.2250   22.2610    1.6950 C   0  0  0  0  0
   -6.3830   21.1360    1.2630 O   0  0  0  0  0
   -7.0980   22.9450    2.3960 O   0  0  0  0  0
   -5.2181   22.7802    1.4719 H   0  0  0  0  0
  1  2  2  0  0  0
  1  3  1  0  0  0
  1  4  1  0  0  0
M  END
$$$$
