FMT_1_A_409
  -ISIS-            3D

  4  3  0  0  0  0  0  0  0  0  1 V2000
    2.0380   10.0210    9.3450 C   0  0  0  0  0
    2.2710    9.3470   10.3370 O   0  0  0  0  0
    2.9170   10.6760    8.6460 O   0  0  0  0  0
    0.9404   10.0854    8.9924 H   0  0  0  0  0
  1  2  2  0  0  0
  1  3  1  0  0  0
  1  4  1  0  0  0
M  END
$$$$
