@<TRIPOS>MOLECULE
FMT_1_A_412
 3 2 0 0 0
SMALL
NO_CHARGES

@<TRIPOS>ATOM
      1 C          10.9360   15.1550    5.0170 C.2    412  FMT412      0.0000
      2 O1         12.0950   15.3200    4.7060 O.2    412  FMT412      0.0000
      3 O2          9.9660   15.9320    4.6370 O.2    412  FMT412     -0.5000
@<TRIPOS>BOND
     1     1     2   ar
     2     1     3   ar

