@<TRIPOS>MOLECULE
FMT_1_A_415
 4 3 0 0 0
SMALL
NO_CHARGES

@<TRIPOS>ATOM
      1 C           3.0300  -18.4040    8.3060 C.2    415  FMT415      0.0000
      2 O1          2.2550  -19.1960    7.8760 O.2    415  FMT415     -0.5000
      3 O2          4.0740  -18.7920    9.0840 O.3    415  FMT415     -0.5000
      4 H           2.9055  -17.2829    8.0662 H      415  FMT415      0.0000
@<TRIPOS>BOND
     1     1     2   ar
     2     1     3   ar
     3     1     4    1

