FMT_1_A_413
  -ISIS-            3D

  4  3  0  0  0  0  0  0  0  0  1 V2000
   27.2200  -10.9260   17.1000 C   0  0  0  0  0
   26.3990  -10.6510   17.9530 O   0  0  0  0  0
   27.7960  -12.0950   16.9560 O   0  0  0  0  0
   27.5207  -10.0972   16.3548 H   0  0  0  0  0
  1  2  2  0  0  0
  1  3  1  0  0  0
  1  4  1  0  0  0
M  END
$$$$
