L46_1_A_201
  -ISIS-            3D

 31 31  0  0  0  0  0  0  0  0  1 V2000
   -6.2900   15.0970    1.0170 C   0  0  0  0  0
   -7.5450   15.2020    1.6790 C   0  0  0  0  0
   -7.2650   15.2810    3.0560 C   0  0  0  0  0
   -5.2890   15.1860    1.9740 C   0  0  0  0  0
   -6.0110   15.0110   -0.4120 C   0  0  0  0  0
   -8.1110   15.4670    4.2440 C   0  0  0  0  0
   -3.8010   15.2190    1.8430 C   0  0  0  0  0
   -4.6650   14.5280   -0.8590 C   0  0  0  0  0
   -9.7430   16.3640    1.2020 C   0  0  0  0  0
   -8.9130   15.0950    1.0600 C   0  0  0  0  0
   -5.8790   15.3220    3.1760 N   0  0  0  0  0
   -7.5850   15.1800    5.4280 N   0  0  0  0  0
   -6.8250   15.4480   -1.2380 O   0  0  0  0  0
   -9.2480   15.9370    4.1540 O   0  0  0  0  0
   -8.3330   15.3560    6.6560 C   0  0  0  0  0
   -3.3226   15.4909    2.8096 H   0  0  0  0  0
   -3.4637   15.9855    1.1133 H   0  0  0  0  0
   -3.3807   14.2304    1.5601 H   0  0  0  0  0
   -4.7260   14.1742   -1.9124 H   0  0  0  0  0
   -4.3122   13.6577   -0.2663 H   0  0  0  0  0
   -3.9042   15.3369   -0.8473 H   0  0  0  0  0
  -10.7161   16.2632    0.6706 H   0  0  0  0  0
   -9.2209   17.2377    0.7510 H   0  0  0  0  0
   -9.9865   16.6359    2.2458 H   0  0  0  0  0
   -9.4541   14.2496    1.5440 H   0  0  0  0  0
   -8.8307   14.8235   -0.0148 H   0  0  0  0  0
   -5.1941   15.4679    4.2913 H   0  0  0  0  0
   -6.6303   14.8078    5.4940 H   0  0  0  0  0
   -7.7296   15.0592    7.5428 H   0  0  0  0  0
   -9.2566   14.7350    6.6668 H   0  0  0  0  0
   -8.6328   16.4173    6.8059 H   0  0  0  0  0
  1  2  2  0  0  0
  1  4  1  0  0  0
  1  5  1  0  0  0
  2  3  1  0  0  0
  2 10  1  0  0  0
  3  6  1  0  0  0
  3 11  1  0  0  0
  4  7  1  0  0  0
  4 11  2  0  0  0
  5  8  1  0  0  0
  5 13  2  0  0  0
  6 12  1  0  0  0
  6 14  2  0  0  0
  7 16  1  0  0  0
  7 17  1  0  0  0
  7 18  1  0  0  0
  8 19  1  0  0  0
  8 20  1  0  0  0
  8 21  1  0  0  0
  9 10  1  0  0  0
  9 22  1  0  0  0
  9 23  1  0  0  0
  9 24  1  0  0  0
 10 25  1  0  0  0
 10 26  1  0  0  0
 11 27  1  0  0  0
 12 15  1  0  0  0
 12 28  1  0  0  0
 15 29  1  0  0  0
 15 30  1  0  0  0
 15 31  1  0  0  0
M  END
$$$$
