DMS_1_A_202
  -ISIS-            3D

 10  9  0  0  0  0  0  0  0  0  1 V2000
   -0.6820    9.4340   -7.0800 S   0  0  0  0  0
   -0.4370    9.5510   -8.5270 O   0  0  0  0  0
    0.1570    7.9580   -6.6240 C   0  0  0  0  0
   -2.3240    8.8480   -7.0250 C   0  0  0  0  0
   -0.1213    7.6716   -5.5892 H   0  0  0  0  0
    1.2524    8.1300   -6.6630 H   0  0  0  0  0
   -0.1020    7.1305   -7.3155 H   0  0  0  0  0
   -2.5826    8.5488   -5.9888 H   0  0  0  0  0
   -2.4544    7.9773   -7.6990 H   0  0  0  0  0
   -3.0159    9.6549   -7.3430 H   0  0  0  0  0
  1  2  2  0  0  0
  1  3  1  0  0  0
  1  4  1  0  0  0
  3  5  1  0  0  0
  3  6  1  0  0  0
  3  7  1  0  0  0
  4  8  1  0  0  0
  4  9  1  0  0  0
  4 10  1  0  0  0
M  END
$$$$
