@<TRIPOS>MOLECULE
EDO_1_A_201
 10 9 0 0 0
SMALL
NO_CHARGES

@<TRIPOS>ATOM
      1 C1         34.7440   80.1730   21.5240 C.3    201  EDO201      0.0000
      2 O1         33.3460   79.9540   21.3070 O.3    201  EDO201      0.0000
      3 C2         35.0490   81.4990   22.1050 C.3    201  EDO201      0.0000
      4 O2         36.1090   81.4820   23.0440 O.3    201  EDO201      0.0000
      5 H          35.3026   80.0167   20.5768 H      201  EDO201      0.0000
      6 H          35.0924   79.3749   22.2130 H      201  EDO201      0.0000
      7 H          33.0897   80.4157   20.5190 H      201  EDO201      0.0000
      8 H          34.1472   81.9111   22.6074 H      201  EDO201      0.0000
      9 H          35.2993   82.2200   21.2991 H      201  EDO201      0.0000
     10 H          35.7938   81.0909   23.8479 H      201  EDO201      0.0000
@<TRIPOS>BOND
     1     1     2    1
     2     1     3    1
     3     1     5    1
     4     1     6    1
     5     2     7    1
     6     3     4    1
     7     3     8    1
     8     3     9    1
     9     4    10    1

