EDO_1_A_203
  -ISIS-            3D

 10  9  0  0  0  0  0  0  0  0  1 V2000
   26.5930   62.8110   22.3780 C   0  0  0  0  0
   26.2710   62.7290   23.7430 O   0  0  0  0  0
   25.4000   62.7310   21.5120 C   0  0  0  0  0
   24.5450   61.6640   21.8580 O   0  0  0  0  0
   27.2889   61.9814   22.1268 H   0  0  0  0  0
   27.1435   63.7563   22.1831 H   0  0  0  0  0
   27.0721   62.7827   24.2470 H   0  0  0  0  0
   25.6960   62.6223   20.4479 H   0  0  0  0  0
   24.8217   63.6775   21.5787 H   0  0  0  0  0
   24.4983   61.6555   22.8076 H   0  0  0  0  0
  1  2  1  0  0  0
  1  3  1  0  0  0
  1  5  1  0  0  0
  1  6  1  0  0  0
  2  7  1  0  0  0
  3  4  1  0  0  0
  3  8  1  0  0  0
  3  9  1  0  0  0
  4 10  1  0  0  0
M  END
$$$$
