@<TRIPOS>MOLECULE
EDO_1_A_202
 10 9 0 0 0
SMALL
NO_CHARGES

@<TRIPOS>ATOM
      1 C1         45.1350   64.0450    9.3200 C.3    202  EDO202      0.0000
      2 O1         43.8940   63.3270    9.2780 O.3    202  EDO202      0.0000
      3 C2         45.3960   64.8530    8.1030 C.3    202  EDO202      0.0000
      4 O2         45.8300   64.0540    7.0370 O.3    202  EDO202      0.0000
      5 H          45.9705   63.3324    9.4898 H      202  EDO202      0.0000
      6 H          45.1117   64.7147   10.2069 H      202  EDO202      0.0000
      7 H          43.8826   62.7081    9.9965 H      202  EDO202      0.0000
      8 H          46.1804   65.6108    8.3170 H      202  EDO202      0.0000
      9 H          44.4818   65.4123    7.8106 H      202  EDO202      0.0000
     10 H          45.8586   64.5842    6.2515 H      202  EDO202      0.0000
@<TRIPOS>BOND
     1     1     2    1
     2     1     3    1
     3     1     5    1
     4     1     6    1
     5     2     7    1
     6     3     4    1
     7     3     8    1
     8     3     9    1
     9     4    10    1

