@<TRIPOS>MOLECULE
EDO_1_A_203
 10 9 0 0 0
SMALL
NO_CHARGES

@<TRIPOS>ATOM
      1 C1         26.5930   62.8110   22.3780 C.3    203  EDO203      0.0000
      2 O1         26.2710   62.7290   23.7430 O.3    203  EDO203      0.0000
      3 C2         25.4000   62.7310   21.5120 C.3    203  EDO203      0.0000
      4 O2         24.5450   61.6640   21.8580 O.3    203  EDO203      0.0000
      5 H          27.2889   61.9814   22.1268 H      203  EDO203      0.0000
      6 H          27.1435   63.7563   22.1831 H      203  EDO203      0.0000
      7 H          27.0721   62.7827   24.2470 H      203  EDO203      0.0000
      8 H          25.6960   62.6223   20.4479 H      203  EDO203      0.0000
      9 H          24.8217   63.6775   21.5787 H      203  EDO203      0.0000
     10 H          24.4983   61.6555   22.8076 H      203  EDO203      0.0000
@<TRIPOS>BOND
     1     1     2    1
     2     1     3    1
     3     1     5    1
     4     1     6    1
     5     2     7    1
     6     3     4    1
     7     3     8    1
     8     3     9    1
     9     4    10    1

