@<TRIPOS>MOLECULE
DMS_2_A_402
 10 9 0 0 0
SMALL
NO_CHARGES

@<TRIPOS>ATOM
      1 S          -6.1270   -1.0130    6.2200 S.o    402  DMS402      0.0000
      2 O          -7.1080   -0.7480    7.3010 O.2    402  DMS402      0.0000
      3 C1         -7.0320   -0.9650    4.6680 C.3    402  DMS402      0.0000
      4 C2         -5.8460   -2.7580    6.2070 C.3    402  DMS402      0.0000
      5 H          -6.3751   -1.2978    3.8385 H      402  DMS402      0.0000
      6 H          -7.3594    0.0761    4.4699 H      402  DMS402      0.0000
      7 H          -7.9258   -1.6202    4.7214 H      402  DMS402      0.0000
      8 H          -5.2294   -3.0359    5.3280 H      402  DMS402      0.0000
      9 H          -6.8093   -3.3075    6.1719 H      402  DMS402      0.0000
     10 H          -5.3016   -3.0482    7.1289 H      402  DMS402      0.0000
@<TRIPOS>BOND
     1     1     2    2
     2     1     3    1
     3     1     4    1
     4     3     5    1
     5     3     6    1
     6     3     7    1
     7     4     8    1
     8     4     9    1
     9     4    10    1

