DMS_1_A_402
  -ISIS-            3D

 10  9  0  0  0  0  0  0  0  0  1 V2000
    7.0800  -20.9670   28.8610 S   0  0  0  0  0
    8.2110  -20.8570   29.7870 O   0  0  0  0  0
    5.6590  -20.5420   29.8280 C   0  0  0  0  0
    6.7730  -22.6840   28.7210 C   0  0  0  0  0
    4.7347  -20.7541   29.2527 H   0  0  0  0  0
    5.6886  -19.4594   30.0683 H   0  0  0  0  0
    5.6447  -21.1207   30.7746 H   0  0  0  0  0
    5.8273  -22.8552   28.1674 H   0  0  0  0  0
    6.7003  -23.1521   29.7244 H   0  0  0  0  0
    7.6027  -23.1628   28.1617 H   0  0  0  0  0
  1  2  2  0  0  0
  1  3  1  0  0  0
  1  4  1  0  0  0
  3  5  1  0  0  0
  3  6  1  0  0  0
  3  7  1  0  0  0
  4  8  1  0  0  0
  4  9  1  0  0  0
  4 10  1  0  0  0
M  END
$$$$
