DMS_2_A_404
  -ISIS-            3D

 10  9  0  0  0  0  0  0  0  0  1 V2000
  -21.2990   14.6110   -7.9200 S   0  0  0  0  0
  -22.7500   14.5220   -8.1260 O   0  0  0  0  0
  -21.0400   13.7330   -6.4030 C   0  0  0  0  0
  -20.6100   13.3720   -8.9620 C   0  0  0  0  0
  -19.9542   13.5813   -6.2343 H   0  0  0  0  0
  -21.5507   12.7492   -6.4260 H   0  0  0  0  0
  -21.4489   14.3291   -5.5613 H   0  0  0  0  0
  -19.5339   13.2366   -8.7299 H   0  0  0  0  0
  -20.7057   13.6896  -10.0207 H   0  0  0  0  0
  -21.1399   12.4065   -8.8299 H   0  0  0  0  0
  1  2  2  0  0  0
  1  3  1  0  0  0
  1  4  1  0  0  0
  3  5  1  0  0  0
  3  6  1  0  0  0
  3  7  1  0  0  0
  4  8  1  0  0  0
  4  9  1  0  0  0
  4 10  1  0  0  0
M  END
$$$$
