@<TRIPOS>MOLECULE
DMS_1_A_401
 10 9 0 0 0
SMALL
NO_CHARGES

@<TRIPOS>ATOM
      1 S           6.9340  -28.0950   21.5280 S.o    401  DMS401      0.0000
      2 O           7.6470  -27.1410   22.3650 O.2    401  DMS401      0.0000
      3 C1          5.9890  -27.1900   20.3490 C.3    401  DMS401      0.0000
      4 C2          5.6200  -28.6840   22.5680 C.3    401  DMS401      0.0000
      5 H           5.3165  -27.8784   19.7976 H      401  DMS401      0.0000
      6 H           6.6734  -26.7022   19.6251 H      401  DMS401      0.0000
      7 H           5.3832  -26.4105   20.8550 H      401  DMS401      0.0000
      8 H           4.9418  -29.3367   21.9812 H      401  DMS401      0.0000
      9 H           5.0431  -27.8317   22.9823 H      401  DMS401      0.0000
     10 H           6.0484  -29.2730   23.4047 H      401  DMS401      0.0000
@<TRIPOS>BOND
     1     1     2    2
     2     1     3    1
     3     1     4    1
     4     3     5    1
     5     3     6    1
     6     3     7    1
     7     4     8    1
     8     4     9    1
     9     4    10    1

