@<TRIPOS>MOLECULE
DMS_1_A_402
 10 9 0 0 0
SMALL
NO_CHARGES

@<TRIPOS>ATOM
      1 S           7.0800  -20.9670   28.8610 S.o    402  DMS402      0.0000
      2 O           8.2110  -20.8570   29.7870 O.2    402  DMS402      0.0000
      3 C1          5.6590  -20.5420   29.8280 C.3    402  DMS402      0.0000
      4 C2          6.7730  -22.6840   28.7210 C.3    402  DMS402      0.0000
      5 H           4.7347  -20.7541   29.2527 H      402  DMS402      0.0000
      6 H           5.6886  -19.4594   30.0683 H      402  DMS402      0.0000
      7 H           5.6447  -21.1207   30.7746 H      402  DMS402      0.0000
      8 H           5.8273  -22.8552   28.1674 H      402  DMS402      0.0000
      9 H           6.7003  -23.1521   29.7244 H      402  DMS402      0.0000
     10 H           7.6027  -23.1628   28.1617 H      402  DMS402      0.0000
@<TRIPOS>BOND
     1     1     2    2
     2     1     3    1
     3     1     4    1
     4     3     5    1
     5     3     6    1
     6     3     7    1
     7     4     8    1
     8     4     9    1
     9     4    10    1

