@<TRIPOS>MOLECULE
DMS_1_A_406
 10 9 0 0 0
SMALL
NO_CHARGES

@<TRIPOS>ATOM
      1 S           2.5010  -18.7940    7.9700 S.o    406  DMS406      0.0000
      2 O           2.1910  -20.1390    7.4680 O.2    406  DMS406      0.0000
      3 C1          3.8610  -19.0470    9.0770 C.3    406  DMS406      0.0000
      4 C2          1.2100  -18.4160    9.1260 C.3    406  DMS406      0.0000
      5 H           4.0765  -18.1073    9.6253 H      406  DMS406      0.0000
      6 H           4.7603  -19.3381    8.4965 H      406  DMS406      0.0000
      7 H           3.6226  -19.8502    9.8044 H      406  DMS406      0.0000
      8 H           1.4566  -17.4810    9.6692 H      406  DMS406      0.0000
      9 H           1.0904  -19.2441    9.8547 H      406  DMS406      0.0000
     10 H           0.2557  -18.2729    8.5790 H      406  DMS406      0.0000
@<TRIPOS>BOND
     1     1     2    2
     2     1     3    1
     3     1     4    1
     4     3     5    1
     5     3     6    1
     6     3     7    1
     7     4     8    1
     8     4     9    1
     9     4    10    1

