DMS_2_A_401
  -ISIS-            3D

 10  9  0  0  0  0  0  0  0  0  1 V2000
   -6.9340  -28.0950  -21.5280 S   0  0  0  0  0
   -7.6470  -27.1410  -22.3650 O   0  0  0  0  0
   -5.9890  -27.1900  -20.3490 C   0  0  0  0  0
   -5.6200  -28.6840  -22.5680 C   0  0  0  0  0
   -5.3165  -27.8784  -19.7976 H   0  0  0  0  0
   -6.6734  -26.7022  -19.6251 H   0  0  0  0  0
   -5.3832  -26.4105  -20.8550 H   0  0  0  0  0
   -4.9418  -29.3367  -21.9812 H   0  0  0  0  0
   -5.0431  -27.8317  -22.9823 H   0  0  0  0  0
   -6.0484  -29.2730  -23.4047 H   0  0  0  0  0
  1  2  2  0  0  0
  1  3  1  0  0  0
  1  4  1  0  0  0
  3  5  1  0  0  0
  3  6  1  0  0  0
  3  7  1  0  0  0
  4  8  1  0  0  0
  4  9  1  0  0  0
  4 10  1  0  0  0
M  END
$$$$
