DMS_2_A_403
  -ISIS-            3D

 10  9  0  0  0  0  0  0  0  0  1 V2000
   -6.2270   -1.0420    6.2930 S   0  0  0  0  0
   -7.0440   -0.7530    7.4690 O   0  0  0  0  0
   -7.3310   -0.9740    4.9090 C   0  0  0  0  0
   -5.9100   -2.7860    6.2960 C   0  0  0  0  0
   -6.8050   -1.3092    3.9916 H   0  0  0  0  0
   -7.6736    0.0708    4.7630 H   0  0  0  0  0
   -8.2135   -1.6223    5.0856 H   0  0  0  0  0
   -5.4104   -3.0790    5.3498 H   0  0  0  0  0
   -6.8584   -3.3511    6.4031 H   0  0  0  0  0
   -5.2424   -3.0364    7.1457 H   0  0  0  0  0
  1  2  2  0  0  0
  1  3  1  0  0  0
  1  4  1  0  0  0
  3  5  1  0  0  0
  3  6  1  0  0  0
  3  7  1  0  0  0
  4  8  1  0  0  0
  4  9  1  0  0  0
  4 10  1  0  0  0
M  END
$$$$
