@<TRIPOS>MOLECULE
DMS_1_A_408
 10 9 0 0 0
SMALL
NO_CHARGES

@<TRIPOS>ATOM
      1 S          25.0460   -3.8610   19.9340 S.o    408  DMS408      0.0000
      2 O          24.1440   -2.8330   19.3940 O.2    408  DMS408      0.0000
      3 C1         24.9280   -3.6620   21.6720 C.3    408  DMS408      0.0000
      4 C2         24.1160   -5.3560   19.8320 C.3    408  DMS408      0.0000
      5 H          25.4320   -4.5064   22.1851 H      408  DMS408      0.0000
      6 H          23.8670   -3.6180   21.9927 H      408  DMS408      0.0000
      7 H          25.4303   -2.7183   21.9686 H      408  DMS408      0.0000
      8 H          24.6386   -6.1648   20.3826 H      408  DMS408      0.0000
      9 H          24.0205   -5.6563   18.7683 H      408  DMS408      0.0000
     10 H          23.1009   -5.2172   20.2573 H      408  DMS408      0.0000
@<TRIPOS>BOND
     1     1     2    2
     2     1     3    1
     3     1     4    1
     4     3     5    1
     5     3     6    1
     6     3     7    1
     7     4     8    1
     8     4     9    1
     9     4    10    1

