@<TRIPOS>MOLECULE
DMS_2_A_401
 10 9 0 0 0
SMALL
NO_CHARGES

@<TRIPOS>ATOM
      1 S          -6.9720  -28.1540  -21.4880 S.o    401  DMS401      0.0000
      2 O          -7.8170  -27.2360  -22.3080 O.2    401  DMS401      0.0000
      3 C1         -5.7420  -28.8040  -22.5830 C.3    401  DMS401      0.0000
      4 C2         -5.9130  -27.0980  -20.5440 C.3    401  DMS401      0.0000
      5 H          -4.9864  -29.3744  -22.0051 H      401  DMS401      0.0000
      6 H          -5.2414  -27.9827  -23.1363 H      401  DMS401      0.0000
      7 H          -6.2243  -29.4872  -23.3116 H      401  DMS401      0.0000
      8 H          -5.1506  -27.7048  -20.0140 H      401  DMS401      0.0000
      9 H          -6.5171  -26.5495  -19.7927 H      401  DMS401      0.0000
     10 H          -5.4067  -26.3640  -21.2044 H      401  DMS401      0.0000
@<TRIPOS>BOND
     1     1     2    2
     2     1     3    1
     3     1     4    1
     4     3     5    1
     5     3     6    1
     6     3     7    1
     7     4     8    1
     8     4     9    1
     9     4    10    1

