@<TRIPOS>MOLECULE
DMS_1_A_402
 10 9 0 0 0
SMALL
NO_CHARGES

@<TRIPOS>ATOM
      1 S           6.1200   -1.0410   -6.2370 S.o    402  DMS402      0.0000
      2 O           7.0470   -0.7690   -7.3790 O.2    402  DMS402      0.0000
      3 C1          7.1440   -1.0250   -4.7790 C.3    402  DMS402      0.0000
      4 C2          5.7780   -2.7700   -6.2600 C.3    402  DMS402      0.0000
      5 H           6.5534   -1.3569   -3.9007 H      402  DMS402      0.0000
      6 H           7.5059    0.0077   -4.5973 H      402  DMS402      0.0000
      7 H           8.0175   -1.6957   -4.9123 H      402  DMS402      0.0000
      8 H           5.2170   -3.0563   -5.3470 H      402  DMS402      0.0000
      9 H           6.7210   -3.3519   -6.3110 H      402  DMS402      0.0000
     10 H           5.1590   -3.0099   -7.1486 H      402  DMS402      0.0000
@<TRIPOS>BOND
     1     1     2    2
     2     1     3    1
     3     1     4    1
     4     3     5    1
     5     3     6    1
     6     3     7    1
     7     4     8    1
     8     4     9    1
     9     4    10    1

