DMS_2_A_401
  -ISIS-            3D

 10  9  0  0  0  0  0  0  0  0  1 V2000
   -6.9720  -28.1540  -21.4880 S   0  0  0  0  0
   -7.8170  -27.2360  -22.3080 O   0  0  0  0  0
   -5.7420  -28.8040  -22.5830 C   0  0  0  0  0
   -5.9130  -27.0980  -20.5440 C   0  0  0  0  0
   -4.9864  -29.3744  -22.0051 H   0  0  0  0  0
   -5.2414  -27.9827  -23.1363 H   0  0  0  0  0
   -6.2243  -29.4872  -23.3116 H   0  0  0  0  0
   -5.1506  -27.7048  -20.0140 H   0  0  0  0  0
   -6.5171  -26.5495  -19.7927 H   0  0  0  0  0
   -5.4067  -26.3640  -21.2044 H   0  0  0  0  0
  1  2  2  0  0  0
  1  3  1  0  0  0
  1  4  1  0  0  0
  3  5  1  0  0  0
  3  6  1  0  0  0
  3  7  1  0  0  0
  4  8  1  0  0  0
  4  9  1  0  0  0
  4 10  1  0  0  0
M  END
$$$$
