@<TRIPOS>MOLECULE
DMS_1_A_403
 10 9 0 0 0
SMALL
NO_CHARGES

@<TRIPOS>ATOM
      1 S           2.3740  -18.8840    8.0530 S.o    403  DMS403      0.0000
      2 O           3.6430  -18.7420    8.8790 O.2    403  DMS403      0.0000
      3 C1          1.0630  -18.2190    9.0630 C.3    403  DMS403      0.0000
      4 C2          1.9180  -20.5900    8.2130 C.3    403  DMS403      0.0000
      5 H           0.0805  -18.4410    8.5986 H      403  DMS403      0.0000
      6 H           1.1827  -17.1188    9.1381 H      403  DMS403      0.0000
      7 H           1.0989  -18.6560   10.0820 H      403  DMS403      0.0000
      8 H           0.9125  -20.7543    7.7745 H      403  DMS403      0.0000
      9 H           1.9098  -20.8922    9.2804 H      403  DMS403      0.0000
     10 H           2.6518  -21.2176    7.6670 H      403  DMS403      0.0000
@<TRIPOS>BOND
     1     1     2    2
     2     1     3    1
     3     1     4    1
     4     3     5    1
     5     3     6    1
     6     3     7    1
     7     4     8    1
     8     4     9    1
     9     4    10    1

