@<TRIPOS>MOLECULE
FMT_1_A_513
 3 2 0 0 0
SMALL
NO_CHARGES

@<TRIPOS>ATOM
      1 C          26.5040    1.2050   28.0850 C.2    513  FMT513      0.0000
      2 O1         25.3420    1.0650   27.7670 O.2    513  FMT513      0.0000
      3 O2         27.1260    0.4630   28.9390 O.2    513  FMT513     -0.5000
@<TRIPOS>BOND
     1     1     2   ar
     2     1     3   ar

