@<TRIPOS>MOLECULE
FMT_1_A_511
 4 3 0 0 0
SMALL
NO_CHARGES

@<TRIPOS>ATOM
      1 C          44.9890   28.2930   46.5910 C.2    511  FMT511      0.0000
      2 O1         44.5200   28.5170   45.4800 O.2    511  FMT511     -0.5000
      3 O2         46.2740   28.0490   46.9090 O.3    511  FMT511     -0.5000
      4 H          44.2452   28.2894   47.4749 H      511  FMT511      0.0000
@<TRIPOS>BOND
     1     1     2   ar
     2     1     3   ar
     3     1     4    1

