@<TRIPOS>MOLECULE
FMT_1_A_7106
 4 3 0 0 0
SMALL
NO_CHARGES

@<TRIPOS>ATOM
      1 C          99.5630    9.2270  -15.8270 C.2   7106  FMT7106      0.0000
      2 O1         98.7220    9.2850  -16.7020 O.2   7106  FMT7106     -0.5000
      3 O2         99.6220   10.0250  -14.8000 O.3   7106  FMT7106     -0.5000
      4 H         100.3712    8.4067  -15.9065 H     7106  FMT7106      0.0000
@<TRIPOS>BOND
     1     1     2   ar
     2     1     3   ar
     3     1     4    1

