@<TRIPOS>MOLECULE
FMT_1_A_7111
 3 2 0 0 0
SMALL
NO_CHARGES

@<TRIPOS>ATOM
      1 C         104.5640   30.1270    3.6700 C.2   7111  FMT7111      0.0000
      2 O1        104.5420   29.7120    4.8090 O.2   7111  FMT7111      0.0000
      3 O2        105.3150   29.6590    2.7200 O.2   7111  FMT7111     -0.5000
@<TRIPOS>BOND
     1     1     2   ar
     2     1     3   ar

