@<TRIPOS>MOLECULE
FMT_1_A_7103
 3 2 0 0 0
SMALL
NO_CHARGES

@<TRIPOS>ATOM
      1 C          84.3760   22.4040   13.5290 C.2   7103  FMT7103      0.0000
      2 O1         84.5350   21.4470   12.7990 O.2   7103  FMT7103      0.0000
      3 O2         85.3250   23.2010   13.9150 O.2   7103  FMT7103     -0.5000
@<TRIPOS>BOND
     1     1     2   ar
     2     1     3   ar

