@<TRIPOS>MOLECULE
FMT_1_A_7105
 3 2 0 0 0
SMALL
NO_CHARGES

@<TRIPOS>ATOM
      1 C          81.9790   25.7210   12.4170 C.2   7105  FMT7105      0.0000
      2 O1         82.9820   26.3810   12.5990 O.2   7105  FMT7105      0.0000
      3 O2         81.9180   24.6400   11.6980 O.2   7105  FMT7105     -0.5000
@<TRIPOS>BOND
     1     1     2   ar
     2     1     3   ar

