@<TRIPOS>MOLECULE
SAM_1_A_7102
 50 52 0 0 0
SMALL
NO_CHARGES

@<TRIPOS>ATOM
      1 N          80.7650   18.6660   -0.9580 N.3   7102  SAM7102      1.0000
      2 CA         79.3810   18.2170   -0.6530 C.3   7102  SAM7102      0.0000
      3 C          78.3820   19.1370   -1.3760 C.2   7102  SAM7102      0.0000
      4 O          78.7280   19.5680   -2.5020 O.co2 7102  SAM7102     -0.5000
      5 OXT        77.2860   19.3590   -0.8230 O.co2 7102  SAM7102     -0.5000
      6 CB         79.1480   18.2000    0.8640 C.3   7102  SAM7102      0.0000
      7 CG         80.1470   17.2880    1.5910 C.3   7102  SAM7102      0.0000
      8 SD         79.7880   17.0390    3.3460 S.3   7102  SAM7102      0.0000
      9 CE         80.1820   18.6460    4.0190 C.3   7102  SAM7102      0.0000
     10 C5'        81.2610   16.0680    3.8100 C.3   7102  SAM7102      0.0000
     11 C4'        81.3400   14.6950    3.1640 C.3   7102  SAM7102      0.0000
     12 O4'        82.5850   14.0480    3.5190 O.3   7102  SAM7102      0.0000
     13 C3'        80.2360   13.7140    3.5770 C.3   7102  SAM7102      0.0000
     14 O3'        79.4290   13.4020    2.4490 O.3   7102  SAM7102      0.0000
     15 C2'        80.9950   12.4890    4.1130 C.3   7102  SAM7102      0.0000
     16 O2'        80.3980   11.2630    3.7470 O.3   7102  SAM7102      0.0000
     17 C1'        82.3620   12.6600    3.4610 C.3   7102  SAM7102      0.0000
     18 N9         83.4420   11.9330    4.1300 N.ar  7102  SAM7102      0.0000
     19 C8         83.7850   11.9970    5.4570 C.ar  7102  SAM7102      0.0000
     20 N7         84.7790   11.2070    5.7800 N.ar  7102  SAM7102      0.0000
     21 C5         85.1090   10.5640    4.5970 C.ar  7102  SAM7102      0.0000
     22 C6         86.0830    9.5920    4.2830 C.ar  7102  SAM7102      0.0000
     23 N6         86.9280    9.0690    5.1700 N.pl3 7102  SAM7102      0.0000
     24 N1         86.1400    9.1560    3.0030 N.ar  7102  SAM7102      0.0000
     25 C2         85.2850    9.6770    2.1140 C.ar  7102  SAM7102      0.0000
     26 N3         84.3300   10.5860    2.2940 N.ar  7102  SAM7102      0.0000
     27 C4         84.2910   11.0010    3.5720 C.ar  7102  SAM7102      0.0000
     28 H          81.4529   18.0211   -0.5831 H     7102  SAM7102      0.0000
     29 H          80.9416   19.5882   -0.5693 H     7102  SAM7102      0.0000
     30 H          79.2390   17.1856   -1.0564 H     7102  SAM7102      0.0000
     31 H          78.1146   17.8379    1.0725 H     7102  SAM7102      0.0000
     32 H          79.2161   19.2352    1.2691 H     7102  SAM7102      0.0000
     33 H          81.1814   17.6880    1.5098 H     7102  SAM7102      0.0000
     34 H          80.1361   16.2895    1.1008 H     7102  SAM7102      0.0000
     35 H          80.1951   18.6019    5.1296 H     7102  SAM7102      0.0000
     36 H          79.4161   19.3948    3.7236 H     7102  SAM7102      0.0000
     37 H          81.1732   19.0176    3.6814 H     7102  SAM7102      0.0000
     38 H          81.2648   15.9668    4.9177 H     7102  SAM7102      0.0000
     39 H          82.1679   16.6553    3.5449 H     7102  SAM7102      0.0000
     40 H          81.3330   14.8078    2.0587 H     7102  SAM7102      0.0000
     41 H          79.5967   14.1369    4.3797 H     7102  SAM7102      0.0000
     42 H          79.1472   12.5004    2.5542 H     7102  SAM7102      0.0000
     43 H          81.0754   12.5654    5.2181 H     7102  SAM7102      0.0000
     44 H          80.9825   10.5658    4.0156 H     7102  SAM7102      0.0000
     45 H          82.3283   12.3308    2.4002 H     7102  SAM7102      0.0000
     46 H          83.3395   12.6195    6.2441 H     7102  SAM7102      0.0000
     47 H          85.3800    9.2887    1.0852 H     7102  SAM7102      0.0000
     48 H          87.5738    8.3609    4.7994 H     7102  SAM7102      0.0000
     49 H          86.8684    9.4102    6.1379 H     7102  SAM7102      0.0000
     50 H          80.9228   18.7069   -1.9605 H     7102  SAM7102      0.0000
@<TRIPOS>BOND
     1     1     2    1
     2     1    28    1
     3     1    29    1
     4     2     3    1
     5     2     6    1
     6     2    30    1
     7     3     4   ar
     8     3     5   ar
     9     6     7    1
    10     6    31    1
    11     6    32    1
    12     7     8    1
    13     7    33    1
    14     7    34    1
    15     8     9    1
    16     8    10    1
    17     9    35    1
    18     9    36    1
    19     9    37    1
    20    10    11    1
    21    10    38    1
    22    10    39    1
    23    11    12    1
    24    11    13    1
    25    11    40    1
    26    12    17    1
    27    13    14    1
    28    13    15    1
    29    13    41    1
    30    14    42    1
    31    15    16    1
    32    15    17    1
    33    15    43    1
    34    16    44    1
    35    17    18    1
    36    17    45    1
    37    18    19   ar
    38    18    27   ar
    39    19    20   ar
    40    19    46    1
    41    20    21   ar
    42    21    22   ar
    43    21    27   ar
    44    22    23    1
    45    22    24   ar
    46    23    48    1
    47    23    49    1
    48    24    25   ar
    49    25    26   ar
    50    25    47    1
    51    26    27   ar
    52     1    50    1

