@<TRIPOS>MOLECULE
NOL_1_A_2001
 91 93 0 0 0
SMALL
NO_CHARGES

@<TRIPOS>ATOM
      1 C1         21.5000    5.9480   19.3940 C.ar  2001  NOL2001      0.0000
      2 C2         20.1950    6.0620   18.8140 C.ar  2001  NOL2001      0.0000
      3 C3         19.4130    7.4100   18.9140 C.ar  2001  NOL2001      0.0000
      4 C4         19.9920    8.5100   19.5720 C.ar  2001  NOL2001      0.0000
      5 C5         21.4070    8.3870   20.2000 C.ar  2001  NOL2001      0.0000
      6 C6         22.1270    7.1530   20.1120 C.ar  2001  NOL2001      0.0000
      7 C13        19.5950    4.8460   18.1060 C.3   2001  NOL2001      0.0000
      8 O15        18.6020    4.2710   18.9710 O.3   2001  NOL2001      0.0000
      9 C17        18.6480    3.4850   20.1600 C.2   2001  NOL2001      0.0000
     10 N19        17.7190    2.9440   20.9940 N.am  2001  NOL2001      0.0000
     11 C21        17.9740    2.1500   22.2180 C.3   2001  NOL2001      0.0000
     12 C23        17.0500    1.0590   22.0180 C.2   2001  NOL2001      0.0000
     13 N25        17.9030    0.0510   22.0440 N.am  2001  NOL2001      0.0000
     14 C27        17.3880   -1.3640   21.8880 C.3   2001  NOL2001      0.0000
     15 C29        16.7260   -1.9610   23.0800 C.2   2001  NOL2001      0.0000
     16 N31        15.7000   -2.9900   23.0080 N.am  2001  NOL2001      0.0000
     17 C33        14.5570   -2.9170   23.7350 C.2   2001  NOL2001      0.0000
     18 C35        13.6450   -3.9600   23.6130 C.3   2001  NOL2001      0.0000
     19 O39        14.0880   -4.6710   24.8120 O.3   2001  NOL2001      0.0000
     20 C41        13.7160   -1.5790   24.1280 C.2   2001  NOL2001      0.0000
     21 C43        13.7870   -0.1360   24.4680 C.3   2001  NOL2001      0.0000
     22 C45        14.4450    0.0020   25.8380 C.3   2001  NOL2001      0.0000
     23 C47        13.7200    1.1990   26.5080 C.3   2001  NOL2001      0.0000
     24 N49        12.4310    1.2500   25.8120 N.am  2001  NOL2001      0.0000
     25 C51        12.4770    0.4970   24.6690 C.2   2001  NOL2001      0.0000
     26 O54        11.5010    0.3910   23.8990 O.2   2001  NOL2001      0.0000
     27 O56        17.0470   -1.5350   24.2050 O.2   2001  NOL2001      0.0000
     28 C58        18.4250   -2.4560   21.5220 C.3   2001  NOL2001      0.0000
     29 C60        19.3910   -2.3210   20.3580 C.3   2001  NOL2001      0.0000
     30 C62        18.6130   -2.0700   18.9940 C.3   2001  NOL2001      0.0000
     31 C63        19.6270   -1.9260   17.7990 C.3   2001  NOL2001      0.0000
     32 C64        20.5830   -3.2090   17.6930 C.3   2001  NOL2001      0.0000
     33 C65        21.3300   -3.5330   19.0550 C.3   2001  NOL2001      0.0000
     34 C66        20.3010   -3.6350   20.2690 C.3   2001  NOL2001      0.0000
     35 O73        15.8750    0.8940   21.8770 O.2   2001  NOL2001      0.0000
     36 C75        17.5870    3.0990   23.3120 C.3   2001  NOL2001      0.0000
     37 C77        17.8130    2.4140   24.7190 C.3   2001  NOL2001      0.0000
     38 O79        18.3270    4.2910   23.6940 O.3   2001  NOL2001      0.0000
     39 C81        17.7710    5.6850   23.8350 C.3   2001  NOL2001      0.0000
     40 C83        16.6360    5.8590   24.9200 C.3   2001  NOL2001      0.0000
     41 C85        17.2100    6.1800   22.4720 C.3   2001  NOL2001      0.0000
     42 C87        18.9250    6.5980   24.2430 C.3   2001  NOL2001      0.0000
     43 O89        19.8850    3.3070   20.4190 O.2   2001  NOL2001      0.0000
     44 H          22.0673    5.0043   19.3393 H     2001  NOL2001      0.0000
     45 H          18.4078    7.4865   18.4674 H     2001  NOL2001      0.0000
     46 H          19.4506    9.4675   19.6504 H     2001  NOL2001      0.0000
     47 H          21.8478    9.2577   20.7134 H     2001  NOL2001      0.0000
     48 H          23.1311    7.0564   20.5572 H     2001  NOL2001      0.0000
     49 H          20.3758    4.1023   17.8484 H     2001  NOL2001      0.0000
     50 H          19.1257    5.1679   17.1541 H     2001  NOL2001      0.0000
     51 H          16.7349    3.0997   20.7325 H     2001  NOL2001      0.0000
     52 H          19.0599    1.9336   22.3196 H     2001  NOL2001      0.0000
     53 H          18.9202    0.1361   22.1742 H     2001  NOL2001      0.0000
     54 H          16.6244   -1.3682   21.0683 H     2001  NOL2001      0.0000
     55 H          13.7902   -4.5852   22.7039 H     2001  NOL2001      0.0000
     56 H          12.5648   -3.7175   23.7024 H     2001  NOL2001      0.0000
     57 H          14.7766   -5.2796   24.5770 H     2001  NOL2001      0.0000
     58 H          14.3633    0.4312   23.7043 H     2001  NOL2001      0.0000
     59 H          15.5419    0.1701   25.7682 H     2001  NOL2001      0.0000
     60 H          14.2868   -0.9078   26.4623 H     2001  NOL2001      0.0000
     61 H          14.2969    2.1395   26.3543 H     2001  NOL2001      0.0000
     62 H          13.6056    1.0373   27.6032 H     2001  NOL2001      0.0000
     63 H          11.5967    1.7697   26.1110 H     2001  NOL2001      0.0000
     64 H          17.8677   -3.4119   21.3725 H     2001  NOL2001      0.0000
     65 H          19.0509   -2.6226   22.4321 H     2001  NOL2001      0.0000
     66 H          20.0576   -1.4451   20.5459 H     2001  NOL2001      0.0000
     67 H          18.0011   -1.1423   19.0682 H     2001  NOL2001      0.0000
     68 H          17.9153   -2.9150   18.7946 H     2001  NOL2001      0.0000
     69 H          20.2503   -1.0142   17.9456 H     2001  NOL2001      0.0000
     70 H          19.0701   -1.7946   16.8430 H     2001  NOL2001      0.0000
     71 H          21.3332   -3.0467   16.8854 H     2001  NOL2001      0.0000
     72 H          19.9708   -4.0913   17.3954 H     2001  NOL2001      0.0000
     73 H          22.0706   -2.7284   19.2685 H     2001  NOL2001      0.0000
     74 H          21.8971   -4.4870   18.9589 H     2001  NOL2001      0.0000
     75 H          19.6564   -4.5325   20.1273 H     2001  NOL2001      0.0000
     76 H          20.8650   -3.7758   21.2194 H     2001  NOL2001      0.0000
     77 H          16.5060    3.3496   23.2233 H     2001  NOL2001      0.0000
     78 H          17.4259    3.0298   25.5603 H     2001  NOL2001      0.0000
     79 H          18.8887    2.2084   24.9157 H     2001  NOL2001      0.0000
     80 H          17.2834    1.4391   24.7755 H     2001  NOL2001      0.0000
     81 H          16.2910    6.9130   24.9955 H     2001  NOL2001      0.0000
     82 H          16.9905    5.5512   25.9275 H     2001  NOL2001      0.0000
     83 H          15.7473    5.2364   24.6798 H     2001  NOL2001      0.0000
     84 H          16.8705    7.2373   22.5212 H     2001  NOL2001      0.0000
     85 H          16.3406    5.5727   22.1402 H     2001  NOL2001      0.0000
     86 H          17.9778    6.1186   21.6703 H     2001  NOL2001      0.0000
     87 H          18.6094    7.6597   24.3389 H     2001  NOL2001      0.0000
     88 H          19.7512    6.5688   23.4991 H     2001  NOL2001      0.0000
     89 H          19.3595    6.2944   25.2204 H     2001  NOL2001      0.0000
     90 H          13.0633   -1.5029   23.2261 H     2001  NOL2001      0.0000
     91 H          13.0329   -1.9551   24.9234 H     2001  NOL2001      0.0000
@<TRIPOS>BOND
     1     1     2   ar
     2     1     6   ar
     3     1    44    1
     4     2     3   ar
     5     2     7    1
     6     3     4   ar
     7     3    45    1
     8     4     5   ar
     9     4    46    1
    10     5     6   ar
    11     5    47    1
    12     6    48    1
    13     7     8    1
    14     7    49    1
    15     7    50    1
    16     8     9    1
    17     9    10    1
    18     9    43    2
    19    10    11    1
    20    10    51    1
    21    11    12    1
    22    11    36    1
    23    11    52    1
    24    12    13    1
    25    12    35    2
    26    13    14    1
    27    13    53    1
    28    14    15    1
    29    14    28    1
    30    14    54    1
    31    15    16    1
    32    15    27    2
    33    16    17    2
    34    17    18    1
    35    17    20    1
    36    18    19    1
    37    18    55    1
    38    18    56    1
    39    19    57    1
    40    20    21    1
    41    20    90    1
    42    20    91    1
    43    21    22    1
    44    21    25    1
    45    21    58    1
    46    22    23    1
    47    22    59    1
    48    22    60    1
    49    23    24    1
    50    23    61    1
    51    23    62    1
    52    24    25    1
    53    24    63    1
    54    25    26    2
    55    28    29    1
    56    28    64    1
    57    28    65    1
    58    29    30    1
    59    29    34    1
    60    29    66    1
    61    30    31    1
    62    30    67    1
    63    30    68    1
    64    31    32    1
    65    31    69    1
    66    31    70    1
    67    32    33    1
    68    32    71    1
    69    32    72    1
    70    33    34    1
    71    33    73    1
    72    33    74    1
    73    34    75    1
    74    34    76    1
    75    36    37    1
    76    36    38    1
    77    36    77    1
    78    37    78    1
    79    37    79    1
    80    37    80    1
    81    38    39    1
    82    39    40    1
    83    39    41    1
    84    39    42    1
    85    40    81    1
    86    40    82    1
    87    40    83    1
    88    41    84    1
    89    41    85    1
    90    41    86    1
    91    42    87    1
    92    42    88    1
    93    42    89    1

