@<TRIPOS>MOLECULE
ADN_1_A_204
 32 34 0 0 0
SMALL
NO_CHARGES

@<TRIPOS>ATOM
      1 O5'        24.8540   44.5250   32.8470 O.3    204  ADN204      0.0000
      2 C5'        23.5520   43.9500   32.7650 C.3    204  ADN204      0.0000
      3 C4'        23.6130   42.4960   32.3440 C.3    204  ADN204      0.0000
      4 O4'        24.6850   41.8460   33.0730 O.3    204  ADN204      0.0000
      5 C3'        22.3450   41.6660   32.6350 C.3    204  ADN204      0.0000
      6 O3'        22.0510   40.7390   31.5900 O.3    204  ADN204      0.0000
      7 C2'        22.7100   40.9210   33.9210 C.3    204  ADN204      0.0000
      8 O2'        21.9980   39.7070   34.0560 O.3    204  ADN204      0.0000
      9 C1'        24.1960   40.6770   33.6850 C.3    204  ADN204      0.0000
     10 N9         24.9840   40.4380   34.8850 N.ar   204  ADN204      0.0000
     11 C8         24.6590   40.7290   36.1910 C.ar   204  ADN204      0.0000
     12 N7         25.6000   40.4040   37.0400 N.ar   204  ADN204      0.0000
     13 C5         26.6090   39.8660   36.2500 C.ar   204  ADN204      0.0000
     14 C6         27.8790   39.3340   36.5630 C.ar   204  ADN204      0.0000
     15 N6         28.3570   39.2610   37.8090 N.pl3  204  ADN204      0.0000
     16 N1         28.6270   38.8450   35.5260 N.ar   204  ADN204      0.0000
     17 C2         28.1420   38.9480   34.2770 C.ar   204  ADN204      0.0000
     18 N3         26.9730   39.4460   33.8650 N.ar   204  ADN204      0.0000
     19 C4         26.2440   39.8890   34.9140 C.ar   204  ADN204      0.0000
     20 H          25.4292   43.8600   33.2104 H      204  ADN204      0.0000
     21 H          22.9361   44.5388   32.0548 H      204  ADN204      0.0000
     22 H          23.0691   44.0403   33.7608 H      204  ADN204      0.0000
     23 H          23.8421   42.4508   31.2576 H      204  ADN204      0.0000
     24 H          21.4650   42.3234   32.7952 H      204  ADN204      0.0000
     25 H          21.5711   40.0197   31.9848 H      204  ADN204      0.0000
     26 H          22.5317   41.5865   34.7902 H      204  ADN204      0.0000
     27 H          22.3554   39.2392   34.7989 H      204  ADN204      0.0000
     28 H          24.3391   39.8112   33.0029 H      204  ADN204      0.0000
     29 H          23.7488   41.1876   36.5989 H      204  ADN204      0.0000
     30 H          28.7965   38.5538   33.4808 H      204  ADN204      0.0000
     31 H          29.2876   38.8337   37.8970 H      204  ADN204      0.0000
     32 H          27.7680   39.6313   38.5657 H      204  ADN204      0.0000
@<TRIPOS>BOND
     1     1     2    1
     2     1    20    1
     3     2     3    1
     4     2    21    1
     5     2    22    1
     6     3     4    1
     7     3     5    1
     8     3    23    1
     9     4     9    1
    10     5     6    1
    11     5     7    1
    12     5    24    1
    13     6    25    1
    14     7     8    1
    15     7     9    1
    16     7    26    1
    17     8    27    1
    18     9    10    1
    19     9    28    1
    20    10    11   ar
    21    10    19   ar
    22    11    12   ar
    23    11    29    1
    24    12    13   ar
    25    13    14   ar
    26    13    19   ar
    27    14    15    1
    28    14    16   ar
    29    15    31    1
    30    15    32    1
    31    16    17   ar
    32    17    18   ar
    33    17    30    1
    34    18    19   ar

