@<TRIPOS>MOLECULE
EDO_1_A_202
 10 9 0 0 0
SMALL
NO_CHARGES

@<TRIPOS>ATOM
      1 C1         22.6170   52.0060   37.1130 C.3    202  EDO202      0.0000
      2 O1         23.4210   51.0900   37.7830 O.3    202  EDO202      0.0000
      3 C2         21.5820   52.6290   37.9610 C.3    202  EDO202      0.0000
      4 O2         21.1410   53.8630   37.4340 O.3    202  EDO202      0.0000
      5 H          22.1401   51.5133   36.2385 H      202  EDO202      0.0000
      6 H          23.2783   52.7977   36.6982 H      202  EDO202      0.0000
      7 H          24.0272   50.7031   37.1646 H      202  EDO202      0.0000
      8 H          21.9732   52.7968   38.9877 H      202  EDO202      0.0000
      9 H          20.7105   51.9504   38.0688 H      202  EDO202      0.0000
     10 H          21.7503   54.5408   37.6954 H      202  EDO202      0.0000
@<TRIPOS>BOND
     1     1     2    1
     2     1     3    1
     3     1     5    1
     4     1     6    1
     5     2     7    1
     6     3     4    1
     7     3     8    1
     8     3     9    1
     9     4    10    1

