EDO_1_A_202
  -ISIS-            3D

 10  9  0  0  0  0  0  0  0  0  1 V2000
   22.6170   52.0060   37.1130 C   0  0  0  0  0
   23.4210   51.0900   37.7830 O   0  0  0  0  0
   21.5820   52.6290   37.9610 C   0  0  0  0  0
   21.1410   53.8630   37.4340 O   0  0  0  0  0
   22.1401   51.5133   36.2385 H   0  0  0  0  0
   23.2783   52.7977   36.6982 H   0  0  0  0  0
   24.0272   50.7031   37.1646 H   0  0  0  0  0
   21.9732   52.7968   38.9877 H   0  0  0  0  0
   20.7105   51.9504   38.0688 H   0  0  0  0  0
   21.7503   54.5408   37.6954 H   0  0  0  0  0
  1  2  1  0  0  0
  1  3  1  0  0  0
  1  5  1  0  0  0
  1  6  1  0  0  0
  2  7  1  0  0  0
  3  4  1  0  0  0
  3  8  1  0  0  0
  3  9  1  0  0  0
  4 10  1  0  0  0
M  END
$$$$
