@<TRIPOS>MOLECULE
EDO_1_A_201
 10 9 0 0 0
SMALL
NO_CHARGES

@<TRIPOS>ATOM
      1 C1         23.0680   45.9590   35.3440 C.3    201  EDO201      0.0000
      2 O1         24.3280   45.3260   35.2970 O.3    201  EDO201      0.0000
      3 C2         22.0640   45.2850   36.2100 C.3    201  EDO201      0.0000
      4 O2         22.1000   43.8750   36.1710 O.3    201  EDO201      0.0000
      5 H          22.6671   46.0010   34.3075 H      201  EDO201      0.0000
      6 H          23.1997   47.0143   35.6659 H      201  EDO201      0.0000
      7 H          24.8646   45.7602   34.6464 H      201  EDO201      0.0000
      8 H          21.0419   45.6329   35.9477 H      201  EDO201      0.0000
      9 H          22.2368   45.6028   37.2617 H      201  EDO201      0.0000
     10 H          21.5030   43.5353   36.8253 H      201  EDO201      0.0000
@<TRIPOS>BOND
     1     1     2    1
     2     1     3    1
     3     1     5    1
     4     1     6    1
     5     2     7    1
     6     3     4    1
     7     3     8    1
     8     3     9    1
     9     4    10    1

