DMS_1_A_601
  -ISIS-            3D

 10  9  0  0  0  0  0  0  0  0  1 V2000
    6.7640    4.0200  -11.3960 S   0  0  0  0  0
    6.6130    4.5890  -12.7710 O   0  0  0  0  0
    5.2110    3.2940  -10.9620 C   0  0  0  0  0
    7.7140    2.5200  -11.5620 C   0  0  0  0  0
    5.3066    2.7454  -10.0026 H   0  0  0  0  0
    4.8761    2.5950  -11.7552 H   0  0  0  0  0
    4.4522    4.0942  -10.8423 H   0  0  0  0  0
    7.7508    1.9890  -10.5887 H   0  0  0  0  0
    8.7484    2.7742  -11.8716 H   0  0  0  0  0
    7.2591    1.8589  -12.3276 H   0  0  0  0  0
  1  2  2  0  0  0
  1  3  1  0  0  0
  1  4  1  0  0  0
  3  5  1  0  0  0
  3  6  1  0  0  0
  3  7  1  0  0  0
  4  8  1  0  0  0
  4  9  1  0  0  0
  4 10  1  0  0  0
M  END
$$$$
