DMS_1_B_703
  -ISIS-            3D

 10  9  0  0  0  0  0  0  0  0  1 V2000
   24.8490   -9.2110  -37.7320 S   0  0  0  0  0
   23.6510   -9.2530  -38.6300 O   0  0  0  0  0
   25.6140  -10.8100  -37.8870 C   0  0  0  0  0
   26.0720   -8.2400  -38.5950 C   0  0  0  0  0
   26.5919  -10.8101  -37.3631 H   0  0  0  0  0
   25.7678  -11.0619  -38.9561 H   0  0  0  0  0
   24.9590  -11.5765  -37.4246 H   0  0  0  0  0
   27.0398   -8.2909  -38.0551 H   0  0  0  0  0
   25.7383   -7.1830  -38.6360 H   0  0  0  0  0
   26.2049   -8.6188  -39.6289 H   0  0  0  0  0
  1  2  2  0  0  0
  1  3  1  0  0  0
  1  4  1  0  0  0
  3  5  1  0  0  0
  3  6  1  0  0  0
  3  7  1  0  0  0
  4  8  1  0  0  0
  4  9  1  0  0  0
  4 10  1  0  0  0
M  END
$$$$
