@<TRIPOS>MOLECULE
DMS_1_A_601
 10 9 0 0 0
SMALL
NO_CHARGES

@<TRIPOS>ATOM
      1 S           6.7640    4.0200  -11.3960 S.o    601  DMS601      0.0000
      2 O           6.6130    4.5890  -12.7710 O.2    601  DMS601      0.0000
      3 C1          5.2110    3.2940  -10.9620 C.3    601  DMS601      0.0000
      4 C2          7.7140    2.5200  -11.5620 C.3    601  DMS601      0.0000
      5 H           5.3066    2.7454  -10.0026 H      601  DMS601      0.0000
      6 H           4.8761    2.5950  -11.7552 H      601  DMS601      0.0000
      7 H           4.4522    4.0942  -10.8423 H      601  DMS601      0.0000
      8 H           7.7508    1.9890  -10.5887 H      601  DMS601      0.0000
      9 H           8.7484    2.7742  -11.8716 H      601  DMS601      0.0000
     10 H           7.2591    1.8589  -12.3276 H      601  DMS601      0.0000
@<TRIPOS>BOND
     1     1     2    2
     2     1     3    1
     3     1     4    1
     4     3     5    1
     5     3     6    1
     6     3     7    1
     7     4     8    1
     8     4     9    1
     9     4    10    1

