1LQ_1_A_201
  -ISIS-            3D

 18 19  0  0  0  0  0  0  0  0  1 V2000
  -49.8840  -29.1420    3.1780 C   0  0  0  0  0
  -48.5870  -29.0510    2.7570 C   0  0  0  0  0
  -47.5890  -29.0150    3.7310 C   0  0  0  0  0
  -47.9000  -29.0730    5.0450 C   0  0  0  0  0
  -49.2690  -29.1680    5.4810 C   0  0  0  0  0
  -50.2530  -29.2350    4.5650 C   0  0  0  0  0
  -51.5160  -29.4250    4.9730 N   0  0  0  0  0
  -51.7990  -29.4930    6.2500 C   0  0  0  0  0
  -50.9080  -29.4300    7.2200 N   0  0  0  0  0
  -49.6620  -29.2650    6.8300 C   0  0  0  0  0
  -48.5460  -29.2210    7.7150 N   0  0  0  0  0
  -50.6897  -29.1697    2.4246 H   0  0  0  0  0
  -48.3352  -29.0035    1.6847 H   0  0  0  0  0
  -46.5336  -28.9399    3.4168 H   0  0  0  0  0
  -47.0522  -29.0452    5.7426 H   0  0  0  0  0
  -52.8549  -29.6356    6.5339 H   0  0  0  0  0
  -47.5790  -29.0617    7.4227 H   0  0  0  0  0
  -48.8270  -29.3630    8.6937 H   0  0  0  0  0
  1  2  2  0  0  0
  1  6  1  0  0  0
  1 12  1  0  0  0
  2  3  1  0  0  0
  2 13  1  0  0  0
  3  4  2  0  0  0
  3 14  1  0  0  0
  4  5  1  0  0  0
  4 15  1  0  0  0
  5  6  2  0  0  0
  5 10  1  0  0  0
  6  7  1  0  0  0
  7  8  2  0  0  0
  8  9  1  0  0  0
  8 16  1  0  0  0
  9 10  2  0  0  0
 10 11  1  0  0  0
 11 17  1  0  0  0
 11 18  1  0  0  0
M  END
$$$$
