@<TRIPOS>MOLECULE
DMS_1_A_402
 10 9 0 0 0
SMALL
NO_CHARGES

@<TRIPOS>ATOM
      1 S           6.4140   -5.3470   23.7820 S.o    402  DMS402      0.0000
      2 O           6.8070   -5.4020   25.2230 O.2    402  DMS402      0.0000
      3 C1          7.8040   -5.1670   22.6560 C.3    402  DMS402      0.0000
      4 C2          5.2630   -3.9740   23.4760 C.3    402  DMS402      0.0000
      5 H           7.4366   -5.1874   21.6098 H      402  DMS402      0.0000
      6 H           8.5153   -6.0034   22.8125 H      402  DMS402      0.0000
      7 H           8.3178   -4.2034   22.8502 H      402  DMS402      0.0000
      8 H           4.9299   -4.0024   22.4185 H      402  DMS402      0.0000
      9 H           5.7730   -3.0103   23.6800 H      402  DMS402      0.0000
     10 H           4.3829   -4.0769   24.1431 H      402  DMS402      0.0000
@<TRIPOS>BOND
     1     1     2    2
     2     1     3    1
     3     1     4    1
     4     3     5    1
     5     3     6    1
     6     3     7    1
     7     4     8    1
     8     4     9    1
     9     4    10    1

