@<TRIPOS>MOLECULE
DMS_1_A_401
 10 9 0 0 0
SMALL
NO_CHARGES

@<TRIPOS>ATOM
      1 S          13.2410   -3.7150  -13.8480 S.o    401  DMS401      0.0000
      2 O          14.5990   -3.5470  -14.4570 O.2    401  DMS401      0.0000
      3 C1         13.3990   -3.4940  -12.0520 C.3    401  DMS401      0.0000
      4 C2         12.4280   -5.3320  -13.9520 C.3    401  DMS401      0.0000
      5 H          12.3934   -3.5272  -11.5850 H      401  DMS401      0.0000
      6 H          13.8670   -2.5102  -11.8432 H      401  DMS401      0.0000
      7 H          14.0325   -4.3011  -11.6303 H      401  DMS401      0.0000
      8 H          11.4436   -5.2857  -13.4433 H      401  DMS401      0.0000
      9 H          13.0636   -6.1011  -13.4673 H      401  DMS401      0.0000
     10 H          12.2783   -5.5966  -15.0187 H      401  DMS401      0.0000
@<TRIPOS>BOND
     1     1     2    2
     2     1     3    1
     3     1     4    1
     4     3     5    1
     5     3     6    1
     6     3     7    1
     7     4     8    1
     8     4     9    1
     9     4    10    1

