MOK_1_A_201
  -ISIS-            3D

 23 24  0  0  0  0  0  0  0  0  1 V2000
  -42.9320  -31.1420    0.6640 C   0  0  0  0  0
  -44.3300  -30.7690    0.9980 C   0  0  0  0  0
  -44.7290  -30.3340    2.2050 C   0  0  0  0  0
  -43.7780  -30.1500    3.3320 C   0  0  0  0  0
  -43.4510  -31.1490    4.0030 O   0  0  0  0  0
  -43.3310  -29.0070    3.5520 O   0  0  0  0  0
  -46.0970  -30.0590    2.0920 C   0  0  0  0  0
  -46.4300  -30.3800    0.8660 N   0  0  0  0  0
  -45.3570  -30.7270    0.2330 O   0  0  0  0  0
  -47.0400  -29.5220    3.1190 C   0  0  0  0  0
  -48.2380  -29.0310    2.7150 C   0  0  0  0  0
  -49.1270  -28.5420    3.6260 C   0  0  0  0  0
  -48.7540  -28.5390    4.9380 C   0  0  0  0  0
  -47.5480  -29.0650    5.3460 C   0  0  0  0  0
  -46.6730  -29.5450    4.4230 C   0  0  0  0  0
  -42.8872  -32.1805    0.2679 H   0  0  0  0  0
  -42.2401  -31.0922    1.5314 H   0  0  0  0  0
  -42.5230  -30.4693   -0.1220 H   0  0  0  0  0
  -48.5113  -29.0251    1.6460 H   0  0  0  0  0
  -50.1080  -28.1484    3.3112 H   0  0  0  0  0
  -49.4436  -28.1246    5.6940 H   0  0  0  0  0
  -47.2887  -29.0811    6.4186 H   0  0  0  0  0
  -45.7110  -29.9479    4.7703 H   0  0  0  0  0
  1  2  1  0  0  0
  1 16  1  0  0  0
  1 17  1  0  0  0
  1 18  1  0  0  0
  2  3  2  0  0  0
  2  9  1  0  0  0
  3  4  1  0  0  0
  3  7  1  0  0  0
  4  5  2  0  0  0
  4  6  2  0  0  0
  7  8  2  0  0  0
  7 10  1  0  0  0
  8  9  1  0  0  0
 10 11  2  0  0  0
 10 15  1  0  0  0
 11 12  1  0  0  0
 11 19  1  0  0  0
 12 13  2  0  0  0
 12 20  1  0  0  0
 13 14  1  0  0  0
 13 21  1  0  0  0
 14 15  2  0  0  0
 14 22  1  0  0  0
 15 23  1  0  0  0
M  END
$$$$
