@<TRIPOS>MOLECULE
2AK_1_A_201
 18 19 0 0 0
SMALL
NO_CHARGES

@<TRIPOS>ATOM
      1 BR1         3.7700   18.3810   -9.0960 Br     201  2AK201      0.0000
      2 C5          3.2070   16.7610  -10.0040 C.ar   201  2AK201      0.0000
      3 C4          3.4980   16.5830  -11.3630 C.ar   201  2AK201      0.0000
      4 C3          3.1140   15.3860  -12.0200 C.ar   201  2AK201      0.0000
      5 C12         3.4310   15.1930  -13.5010 C.3    201  2AK201      0.0000
      6 C2          2.4440   14.3800  -11.3100 C.ar   201  2AK201      0.0000
      7 C6          2.5380   15.7570   -9.2930 C.ar   201  2AK201      0.0000
      8 N7          2.0960   15.6640   -7.8450 N.ar   201  2AK201      0.0000
      9 C8          1.4400   14.3850   -7.6550 C.ar   201  2AK201      0.0000
     10 O11         0.9040   14.0200   -6.6640 O.2    201  2AK201      0.0000
     11 C9          1.4590   13.6720   -8.9430 C.ar   201  2AK201      0.0000
     12 C1          2.1530   14.5560   -9.9520 C.ar   201  2AK201      0.0000
     13 O10         0.9410   12.6300   -9.1700 O.2    201  2AK201      0.0000
     14 H           4.0291   17.3676  -11.9260 H      201  2AK201      0.0000
     15 H           3.0724   14.2113  -13.8815 H      201  2AK201      0.0000
     16 H           4.5283   15.2397  -13.6817 H      201  2AK201      0.0000
     17 H           2.9491   15.9852  -14.1168 H      201  2AK201      0.0000
     18 H           2.1414   13.4464  -11.8104 H      201  2AK201      0.0000
@<TRIPOS>BOND
     1     1     2    1
     2     2     3   ar
     3     2     7   ar
     4     3     4   ar
     5     3    14    1
     6     4     5    1
     7     4     6   ar
     8     5    15    1
     9     5    16    1
    10     5    17    1
    11     6    12   ar
    12     6    18    1
    13     7     8   ar
    14     7    12   ar
    15     8     9   ar
    16     9    10    2
    17     9    11   ar
    18    11    12   ar
    19    11    13    2

