@<TRIPOS>MOLECULE
G85_1_A_501
 95 97 0 0 0
SMALL
NO_CHARGES

@<TRIPOS>ATOM
      1 C17        25.5530   45.7940   -5.7950 C.2    501  G85501      0.0000
      2 O19        26.7310   45.4630   -5.7350 O.2    501  G85501      0.0000
      3 O15        25.1370   46.6980   -6.8510 O.3    501  G85501      0.0000
      4 C13        26.1240   47.2220   -7.7440 C.3    501  G85501      0.0000
      5 C4         26.8940   48.3580   -7.0980 C.ar   501  G85501      0.0000
      6 C2         28.1820   48.1360   -6.5930 C.ar   501  G85501      0.0000
      7 C1         28.9070   49.1770   -6.0050 C.ar   501  G85501      0.0000
      8 C10        28.3320   50.4470   -5.9220 C.ar   501  G85501      0.0000
      9 C8         27.0490   50.6710   -6.4310 C.ar   501  G85501      0.0000
     10 C6         26.3260   49.6290   -7.0190 C.ar   501  G85501      0.0000
     11 C31        24.1200   43.2240   -3.9190 C.2    501  G85501      0.0000
     12 N21        24.6350   45.3700   -4.9360 N.am   501  G85501      0.0000
     13 O35        22.8920   43.3000   -3.8860 O.2    501  G85501      0.0000
     14 C12        24.6330   46.0660    0.3020 C.3    501  G85501      0.0000
     15 C45        23.0090   44.2440   -0.2700 C.3    501  G85501      0.0000
     16 C43        25.1790   43.6760    0.7450 C.3    501  G85501      0.0000
     17 C23        24.9590   44.4660   -3.8510 C.3    501  G85501      0.0000
     18 C25        24.6140   45.2360   -2.5820 C.3    501  G85501      0.0000
     19 C29        24.4800   44.6320   -0.2050 C.3    501  G85501      0.0000
     20 O27        25.1200   44.4770   -1.4800 O.3    501  G85501      0.0000
     21 N33        24.7770   42.0680   -4.0010 N.am   501  G85501      0.0000
     22 C37        24.0240   40.8270   -4.0470 C.3    501  G85501      0.0000
     23 C39        23.2460   40.6030   -2.7860 C.2    501  G85501      0.0000
     24 O47        23.7610   40.8790   -1.6970 O.2    501  G85501      0.0000
     25 C41        25.0530   39.6830   -4.0730 C.3    501  G85501      0.0000
     26 C51        25.8650   39.5070   -5.3410 C.ar   501  G85501      0.0000
     27 C53        27.0700   38.8030   -5.2310 C.ar   501  G85501      0.0000
     28 C55        25.4620   39.9990   -6.5840 C.ar   501  G85501      0.0000
     29 C7         27.8730   38.6000   -6.3610 C.ar   501  G85501      0.0000
     30 C11        26.2600   39.7970   -7.7140 C.ar   501  G85501      0.0000
     31 C9         27.4670   39.0960   -7.5950 C.ar   501  G85501      0.0000
     32 O86        24.1120   37.8640    0.1930 O.3    501  G85501      0.0000
     33 C3         24.5740   38.2710    1.4830 C.3    501  G85501      0.0000
     34 C5         24.6130   39.7880    1.5380 C.3    501  G85501      0.0000
     35 N49        22.0060   40.1210   -2.9290 N.am   501  G85501      0.0000
     36 C57        21.1640   39.7880   -1.7790 C.3    501  G85501      0.0000
     37 C59        19.8460   40.5600   -1.8270 C.3    501  G85501      0.0000
     38 C61        20.0570   41.9440   -1.2290 C.3    501  G85501      0.0000
     39 C63        20.9330   38.2790   -1.8910 C.3    501  G85501      0.0000
     40 C65        18.8110   42.7660   -1.1820 C.2    501  G85501      0.0000
     41 O66        17.9850   42.8570   -2.0760 O.2    501  G85501      0.0000
     42 N69        18.7750   43.4240   -0.0290 N.am   501  G85501      0.0000
     43 C71        19.8280   43.1230    0.9420 C.3    501  G85501      0.0000
     44 C73        20.4300   41.8880    0.2620 C.3    501  G85501      0.0000
     45 C82        22.2130   37.5110   -1.5030 C.3    501  G85501      0.0000
     46 C84        22.6880   37.8320   -0.0900 C.2    501  G85501      0.0000
     47 O88        21.9220   38.0690    0.8370 O.2    501  G85501      0.0000
     48 H          25.6223   47.6017   -8.6583 H      501  G85501      0.0000
     49 H          26.8137   46.4267   -8.0935 H      501  G85501      0.0000
     50 H          28.6381   47.1335   -6.6546 H      501  G85501      0.0000
     51 H          29.9204   48.9958   -5.6088 H      501  G85501      0.0000
     52 H          28.8924   51.2755   -5.4562 H      501  G85501      0.0000
     53 H          26.6027   51.6782   -6.3658 H      501  G85501      0.0000
     54 H          25.3134   49.8180   -7.4140 H      501  G85501      0.0000
     55 H          23.6607   45.6752   -5.0592 H      501  G85501      0.0000
     56 H          25.6995   46.3789    0.3366 H      501  G85501      0.0000
     57 H          24.2257   46.1851    1.3297 H      501  G85501      0.0000
     58 H          24.0993   46.8002   -0.3391 H      501  G85501      0.0000
     59 H          22.8719   43.2620   -0.7686 H      501  G85501      0.0000
     60 H          22.3814   44.9823   -0.8119 H      501  G85501      0.0000
     61 H          22.5861   44.1624    0.7527 H      501  G85501      0.0000
     62 H          25.1016   42.6231    0.3981 H      501  G85501      0.0000
     63 H          24.7539   43.7133    1.7717 H      501  G85501      0.0000
     64 H          26.2636   43.9042    0.8357 H      501  G85501      0.0000
     65 H          26.0424   44.2101   -3.8332 H      501  G85501      0.0000
     66 H          23.5217   45.4028   -2.5088 H      501  G85501      0.0000
     67 H          25.1045   46.2331   -2.5846 H      501  G85501      0.0000
     68 H          25.8055   42.0512   -4.0328 H      501  G85501      0.0000
     69 H          23.3566   40.7859   -4.9366 H      501  G85501      0.0000
     70 H          24.5120   38.7206   -3.9128 H      501  G85501      0.0000
     71 H          25.7456   39.7897   -3.2055 H      501  G85501      0.0000
     72 H          27.3990   38.4022   -4.2570 H      501  G85501      0.0000
     73 H          24.5169   40.5521   -6.7034 H      501  G85501      0.0000
     74 H          28.8238   38.0475   -6.2715 H      501  G85501      0.0000
     75 H          25.9418   40.1879   -8.6954 H      501  G85501      0.0000
     76 H          28.0981   38.9369   -8.4860 H      501  G85501      0.0000
     77 H          25.5946   37.8676    1.6509 H      501  G85501      0.0000
     78 H          23.9363   37.8649    2.2952 H      501  G85501      0.0000
     79 H          24.9883   40.1485    2.5204 H      501  G85501      0.0000
     80 H          23.6086   40.2392    1.3871 H      501  G85501      0.0000
     81 H          25.2863   40.2041    0.7576 H      501  G85501      0.0000
     82 H          21.6225   39.9826   -3.8743 H      501  G85501      0.0000
     83 H          21.6784   39.9991   -0.8179 H      501  G85501      0.0000
     84 H          19.0626   40.0258   -1.2421 H      501  G85501      0.0000
     85 H          19.4711   40.6301   -2.8733 H      501  G85501      0.0000
     86 H          20.8304   42.5070   -1.8017 H      501  G85501      0.0000
     87 H          20.6052   37.9980   -2.9181 H      501  G85501      0.0000
     88 H          20.1122   37.9691   -1.2036 H      501  G85501      0.0000
     89 H          18.0243   44.1012    0.1594 H      501  G85501      0.0000
     90 H          19.4286   42.8834    1.9526 H      501  G85501      0.0000
     91 H          20.5498   43.9606    1.0307 H      501  G85501      0.0000
     92 H          21.5276   41.8334    0.4296 H      501  G85501      0.0000
     93 H          19.9858   40.9776    0.7289 H      501  G85501      0.0000
     94 H          23.0280   37.7229   -2.2279 H      501  G85501      0.0000
     95 H          22.0159   36.4176   -1.5671 H      501  G85501      0.0000
@<TRIPOS>BOND
     1     1     2    2
     2     1     3    1
     3     1    12    1
     4     3     4    1
     5     4     5    1
     6     4    48    1
     7     4    49    1
     8     5     6   ar
     9     5    10   ar
    10     6     7   ar
    11     6    50    1
    12     7     8   ar
    13     7    51    1
    14     8     9   ar
    15     8    52    1
    16     9    10   ar
    17     9    53    1
    18    10    54    1
    19    11    13    2
    20    11    17    1
    21    11    21    1
    22    12    17    1
    23    12    55    1
    24    14    19    1
    25    14    56    1
    26    14    57    1
    27    14    58    1
    28    15    19    1
    29    15    59    1
    30    15    60    1
    31    15    61    1
    32    16    19    1
    33    16    62    1
    34    16    63    1
    35    16    64    1
    36    17    18    1
    37    17    65    1
    38    18    20    1
    39    18    66    1
    40    18    67    1
    41    19    20    1
    42    21    22    1
    43    21    68    1
    44    22    23    1
    45    22    25    1
    46    22    69    1
    47    23    24    2
    48    23    35    1
    49    25    26    1
    50    25    70    1
    51    25    71    1
    52    26    27   ar
    53    26    28   ar
    54    27    29   ar
    55    27    72    1
    56    28    30   ar
    57    28    73    1
    58    29    31   ar
    59    29    74    1
    60    30    31   ar
    61    30    75    1
    62    31    76    1
    63    32    33    1
    64    32    46    1
    65    33    34    1
    66    33    77    1
    67    33    78    1
    68    34    79    1
    69    34    80    1
    70    34    81    1
    71    35    36    1
    72    35    82    1
    73    36    37    1
    74    36    39    1
    75    36    83    1
    76    37    38    1
    77    37    84    1
    78    37    85    1
    79    38    40    1
    80    38    44    1
    81    38    86    1
    82    39    45    1
    83    39    87    1
    84    39    88    1
    85    40    41    2
    86    40    42    1
    87    42    43    1
    88    42    89    1
    89    43    44    1
    90    43    90    1
    91    43    91    1
    92    44    92    1
    93    44    93    1
    94    45    46    1
    95    45    94    1
    96    45    95    1
    97    46    47    2

