DMS_1_A_406
  -ISIS-            3D

 10  9  0  0  0  0  0  0  0  0  1 V2000
    2.3980  -18.8940    8.1950 S   0  0  0  0  0
    1.2640  -18.0910    8.7570 O   0  0  0  0  0
    3.9180  -18.4600    9.0910 C   0  0  0  0  0
    2.2960  -20.5800    8.8670 C   0  0  0  0  0
    4.7451  -19.1260    8.7706 H   0  0  0  0  0
    3.7588  -18.5589   10.1844 H   0  0  0  0  0
    4.1886  -17.4100    8.8571 H   0  0  0  0  0
    3.1879  -21.1618    8.5566 H   0  0  0  0  0
    1.3862  -21.0739    8.4686 H   0  0  0  0  0
    2.2361  -20.5473    9.9742 H   0  0  0  0  0
  1  2  2  0  0  0
  1  3  1  0  0  0
  1  4  1  0  0  0
  3  5  1  0  0  0
  3  6  1  0  0  0
  3  7  1  0  0  0
  4  8  1  0  0  0
  4  9  1  0  0  0
  4 10  1  0  0  0
M  END
$$$$
