@<TRIPOS>MOLECULE
DMS_1_A_406
 10 9 0 0 0
SMALL
NO_CHARGES

@<TRIPOS>ATOM
      1 S           2.3980  -18.8940    8.1950 S.o    406  DMS406      0.0000
      2 O           1.2640  -18.0910    8.7570 O.2    406  DMS406      0.0000
      3 C1          3.9180  -18.4600    9.0910 C.3    406  DMS406      0.0000
      4 C2          2.2960  -20.5800    8.8670 C.3    406  DMS406      0.0000
      5 H           4.7451  -19.1260    8.7706 H      406  DMS406      0.0000
      6 H           3.7588  -18.5589   10.1844 H      406  DMS406      0.0000
      7 H           4.1886  -17.4100    8.8571 H      406  DMS406      0.0000
      8 H           3.1879  -21.1618    8.5566 H      406  DMS406      0.0000
      9 H           1.3862  -21.0739    8.4686 H      406  DMS406      0.0000
     10 H           2.2361  -20.5473    9.9742 H      406  DMS406      0.0000
@<TRIPOS>BOND
     1     1     2    2
     2     1     3    1
     3     1     4    1
     4     3     5    1
     5     3     6    1
     6     3     7    1
     7     4     8    1
     8     4     9    1
     9     4    10    1

