@<TRIPOS>MOLECULE
DMS_1_A_404
 10 9 0 0 0
SMALL
NO_CHARGES

@<TRIPOS>ATOM
      1 S           6.2160   -0.9910   -6.3910 S.o    404  DMS404      0.0000
      2 O           7.1380   -0.6100   -7.5110 O.2    404  DMS404      0.0000
      3 C1          5.6660   -2.7210   -6.3000 C.3    404  DMS404      0.0000
      4 C2          7.2080   -0.8910   -4.8630 C.3    404  DMS404      0.0000
      5 H           5.0557   -2.8691   -5.3859 H      404  DMS404      0.0000
      6 H           6.5479   -3.3932   -6.2742 H      404  DMS404      0.0000
      7 H           5.0515   -2.9546   -7.1932 H      404  DMS404      0.0000
      8 H           6.5658   -1.1228   -3.9889 H      404  DMS404      0.0000
      9 H           7.6134    0.1359   -4.7564 H      404  DMS404      0.0000
     10 H           8.0466   -1.6155   -4.9122 H      404  DMS404      0.0000
@<TRIPOS>BOND
     1     1     2    2
     2     1     3    1
     3     1     4    1
     4     3     5    1
     5     3     6    1
     6     3     7    1
     7     4     8    1
     8     4     9    1
     9     4    10    1

