IMD_2_A_405
  -ISIS-            3D

  9  9  0  0  0  0  0  0  0  0  1 V2000
  -20.2150  -17.1870   -5.0100 N   0  0  0  0  0
  -20.7210  -16.4960   -6.0540 C   0  0  0  0  0
  -21.1280  -15.2880   -5.6070 N   0  0  0  0  0
  -20.8740  -15.2120   -4.2870 C   0  0  0  0  0
  -20.3000  -16.4120   -3.9080 C   0  0  0  0  0
  -19.8311  -18.1392   -5.0500 H   0  0  0  0  0
  -20.8311  -16.7733   -7.1101 H   0  0  0  0  0
  -21.1268  -14.3053   -3.7254 H   0  0  0  0  0
  -19.9680  -16.6973   -2.8989 H   0  0  0  0  0
  1  2  2  0  0  0
  1  5  1  0  0  0
  1  6  1  0  0  0
  2  3  1  0  0  0
  2  7  1  0  0  0
  3  4  1  0  0  0
  4  5  1  0  0  0
  4  8  1  0  0  0
  5  9  1  0  0  0
M  END
$$$$
