@<TRIPOS>MOLECULE
IMD_2_A_405
 9 9 0 0 0
SMALL
NO_CHARGES

@<TRIPOS>ATOM
      1 N1        -20.2150  -17.1870   -5.0100 N.ar   405  IMD405      0.0000
      2 C2        -20.7210  -16.4960   -6.0540 C.ar   405  IMD405      0.0000
      3 N3        -21.1280  -15.2880   -5.6070 N.ar   405  IMD405      0.0000
      4 C4        -20.8740  -15.2120   -4.2870 C.ar   405  IMD405      0.0000
      5 C5        -20.3000  -16.4120   -3.9080 C.ar   405  IMD405      0.0000
      6 H         -19.8311  -18.1392   -5.0500 H      405  IMD405      0.0000
      7 H         -20.8311  -16.7733   -7.1101 H      405  IMD405      0.0000
      8 H         -21.1268  -14.3053   -3.7254 H      405  IMD405      0.0000
      9 H         -19.9680  -16.6973   -2.8989 H      405  IMD405      0.0000
@<TRIPOS>BOND
     1     1     2   ar
     2     1     5   ar
     3     1     6    1
     4     2     3   ar
     5     2     7    1
     6     3     4   ar
     7     4     5   ar
     8     4     8    1
     9     5     9    1

