@<TRIPOS>MOLECULE
DMS_2_A_407
 10 9 0 0 0
SMALL
NO_CHARGES

@<TRIPOS>ATOM
      1 S          -6.3730  -49.3780    1.0340 S.o    407  DMS407      0.0000
      2 O          -7.2360  -48.6900    2.0610 O.2    407  DMS407      0.0000
      3 C1         -5.6930  -50.8140    1.8110 C.3    407  DMS407      0.0000
      4 C2         -4.8560  -48.4480    0.9110 C.3    407  DMS407      0.0000
      5 H          -4.9478  -51.2891    1.1407 H      407  DMS407      0.0000
      6 H          -6.5060  -51.5411    2.0128 H      407  DMS407      0.0000
      7 H          -5.2071  -50.5421    2.7705 H      407  DMS407      0.0000
      8 H          -4.1348  -48.9876    0.2636 H      407  DMS407      0.0000
      9 H          -4.4123  -48.2985    1.9167 H      407  DMS407      0.0000
     10 H          -5.0705  -47.4574    0.4602 H      407  DMS407      0.0000
@<TRIPOS>BOND
     1     1     2    2
     2     1     3    1
     3     1     4    1
     4     3     5    1
     5     3     6    1
     6     3     7    1
     7     4     8    1
     8     4     9    1
     9     4    10    1

