@<TRIPOS>MOLECULE
DMS_2_A_404
 10 9 0 0 0
SMALL
NO_CHARGES

@<TRIPOS>ATOM
      1 S          -5.8350  -28.0550    6.5070 S.o    404  DMS404      0.0000
      2 O          -7.0020  -27.7680    7.4080 O.2    404  DMS404      0.0000
      3 C1         -6.5040  -28.5110    4.9310 C.3    404  DMS404      0.0000
      4 C2         -5.2070  -29.6530    6.9550 C.3    404  DMS404      0.0000
      5 H          -5.6905  -28.8582    4.2616 H      404  DMS404      0.0000
      6 H          -6.9919  -27.6274    4.4709 H      404  DMS404      0.0000
      7 H          -7.2567  -29.3175    5.0480 H      404  DMS404      0.0000
      8 H          -4.4271  -29.9683    6.2320 H      404  DMS404      0.0000
      9 H          -6.0257  -30.4015    6.9668 H      404  DMS404      0.0000
     10 H          -4.7550  -29.5979    7.9665 H      404  DMS404      0.0000
@<TRIPOS>BOND
     1     1     2    2
     2     1     3    1
     3     1     4    1
     4     3     5    1
     5     3     6    1
     6     3     7    1
     7     4     8    1
     8     4     9    1
     9     4    10    1

