DMS_2_A_407
  -ISIS-            3D

 10  9  0  0  0  0  0  0  0  0  1 V2000
   -6.3730  -49.3780    1.0340 S   0  0  0  0  0
   -7.2360  -48.6900    2.0610 O   0  0  0  0  0
   -5.6930  -50.8140    1.8110 C   0  0  0  0  0
   -4.8560  -48.4480    0.9110 C   0  0  0  0  0
   -4.9478  -51.2891    1.1407 H   0  0  0  0  0
   -6.5060  -51.5411    2.0128 H   0  0  0  0  0
   -5.2071  -50.5421    2.7705 H   0  0  0  0  0
   -4.1348  -48.9876    0.2636 H   0  0  0  0  0
   -4.4123  -48.2985    1.9167 H   0  0  0  0  0
   -5.0705  -47.4574    0.4602 H   0  0  0  0  0
  1  2  2  0  0  0
  1  3  1  0  0  0
  1  4  1  0  0  0
  3  5  1  0  0  0
  3  6  1  0  0  0
  3  7  1  0  0  0
  4  8  1  0  0  0
  4  9  1  0  0  0
  4 10  1  0  0  0
M  END
$$$$
