@<TRIPOS>MOLECULE
DMS_2_A_405
 10 9 0 0 0
SMALL
NO_CHARGES

@<TRIPOS>ATOM
      1 S          -2.0850  -45.7570   -8.1910 S.o    405  DMS405      0.0000
      2 O          -2.1080  -47.1500   -7.6190 O.2    405  DMS405      0.0000
      3 C1         -3.7070  -45.5260   -8.8590 C.3    405  DMS405      0.0000
      4 C2         -1.2090  -45.8500   -9.7300 C.3    405  DMS405      0.0000
      5 H          -3.7469  -44.5776   -9.4328 H      405  DMS405      0.0000
      6 H          -4.4413  -45.4716   -8.0293 H      405  DMS405      0.0000
      7 H          -3.9775  -46.3713   -9.5246 H      405  DMS405      0.0000
      8 H          -1.3020  -44.8886  -10.2754 H      405  DMS405      0.0000
      9 H          -1.6126  -46.6714  -10.3569 H      405  DMS405      0.0000
     10 H          -0.1356  -46.0444   -9.5288 H      405  DMS405      0.0000
@<TRIPOS>BOND
     1     1     2    2
     2     1     3    1
     3     1     4    1
     4     3     5    1
     5     3     6    1
     6     3     7    1
     7     4     8    1
     8     4     9    1
     9     4    10    1

