@<TRIPOS>MOLECULE
DMS_2_A_402
 10 9 0 0 0
SMALL
NO_CHARGES

@<TRIPOS>ATOM
      1 S          -7.7090  -55.4310  -21.0510 S.o    402  DMS402      0.0000
      2 O          -8.2470  -54.4990  -22.0690 O.2    402  DMS402      0.0000
      3 C1         -6.5680  -54.4870  -20.1250 C.3    402  DMS402      0.0000
      4 C2         -6.5590  -56.4350  -21.9430 C.3    402  DMS402      0.0000
      5 H          -5.9917  -55.1492  -19.4471 H      402  DMS402      0.0000
      6 H          -7.1160  -53.7424  -19.5121 H      402  DMS402      0.0000
      7 H          -5.8665  -53.9514  -20.7974 H      402  DMS402      0.0000
      8 H          -5.9804  -57.0636  -21.2356 H      402  DMS402      0.0000
      9 H          -5.8608  -55.8013  -22.5278 H      402  DMS402      0.0000
     10 H          -7.1123  -57.0984  -22.6389 H      402  DMS402      0.0000
@<TRIPOS>BOND
     1     1     2    2
     2     1     3    1
     3     1     4    1
     4     3     5    1
     5     3     6    1
     6     3     7    1
     7     4     8    1
     8     4     9    1
     9     4    10    1

