@<TRIPOS>MOLECULE
DMS_2_A_409
 10 9 0 0 0
SMALL
NO_CHARGES

@<TRIPOS>ATOM
      1 S         -25.1080  -31.6010  -19.0050 S.o    409  DMS409      0.0000
      2 O         -24.8850  -31.7910  -17.5290 O.2    409  DMS409      0.0000
      3 C1        -25.9010  -30.0250  -19.1840 C.3    409  DMS409      0.0000
      4 C2        -26.4990  -32.6210  -19.4610 C.3    409  DMS409      0.0000
      5 H         -26.2140  -29.8783  -20.2379 H      409  DMS409      0.0000
      6 H         -25.1870  -29.2221  -18.9082 H      409  DMS409      0.0000
      7 H         -26.7891  -29.9611  -18.5222 H      409  DMS409      0.0000
      8 H         -26.7924  -32.4097  -20.5096 H      409  DMS409      0.0000
      9 H         -27.3589  -32.4239  -18.7882 H      409  DMS409      0.0000
     10 H         -26.2117  -33.6891  -19.3772 H      409  DMS409      0.0000
@<TRIPOS>BOND
     1     1     2    2
     2     1     3    1
     3     1     4    1
     4     3     5    1
     5     3     6    1
     6     3     7    1
     7     4     8    1
     8     4     9    1
     9     4    10    1

