DMS_2_A_404
  -ISIS-            3D

 10  9  0  0  0  0  0  0  0  0  1 V2000
   -5.8350  -28.0550    6.5070 S   0  0  0  0  0
   -7.0020  -27.7680    7.4080 O   0  0  0  0  0
   -6.5040  -28.5110    4.9310 C   0  0  0  0  0
   -5.2070  -29.6530    6.9550 C   0  0  0  0  0
   -5.6905  -28.8582    4.2616 H   0  0  0  0  0
   -6.9919  -27.6274    4.4709 H   0  0  0  0  0
   -7.2567  -29.3175    5.0480 H   0  0  0  0  0
   -4.4271  -29.9683    6.2320 H   0  0  0  0  0
   -6.0257  -30.4015    6.9668 H   0  0  0  0  0
   -4.7550  -29.5979    7.9665 H   0  0  0  0  0
  1  2  2  0  0  0
  1  3  1  0  0  0
  1  4  1  0  0  0
  3  5  1  0  0  0
  3  6  1  0  0  0
  3  7  1  0  0  0
  4  8  1  0  0  0
  4  9  1  0  0  0
  4 10  1  0  0  0
M  END
$$$$
