DMS_2_A_406
  -ISIS-            3D

 10  9  0  0  0  0  0  0  0  0  1 V2000
   -6.3390  -26.6110  -18.1350 S   0  0  0  0  0
   -6.3080  -26.1860  -19.5720 O   0  0  0  0  0
   -8.0450  -26.8650  -17.7430 C   0  0  0  0  0
   -6.0890  -25.1400  -17.1820 C   0  0  0  0  0
   -8.1593  -27.0420  -16.6539 H   0  0  0  0  0
   -8.4185  -27.7546  -18.2901 H   0  0  0  0  0
   -8.6470  -25.9813  -18.0387 H   0  0  0  0  0
   -6.2466  -25.3569  -16.1056 H   0  0  0  0  0
   -6.7912  -24.3443  -17.5053 H   0  0  0  0  0
   -5.0489  -24.7826  -17.3256 H   0  0  0  0  0
  1  2  2  0  0  0
  1  3  1  0  0  0
  1  4  1  0  0  0
  3  5  1  0  0  0
  3  6  1  0  0  0
  3  7  1  0  0  0
  4  8  1  0  0  0
  4  9  1  0  0  0
  4 10  1  0  0  0
M  END
$$$$
