@<TRIPOS>MOLECULE
GVH_1_A_201
 15 16 0 0 0
SMALL
NO_CHARGES

@<TRIPOS>ATOM
      1 N1        -45.3080  -29.2760    7.0560 N.ar   201  GVH201      0.0000
      2 C2        -46.4340  -29.1160    6.3360 C.ar   201  GVH201      0.0000
      3 C3        -46.4250  -29.1060    4.9620 C.ar   201  GVH201      0.0000
      4 C4        -45.2230  -29.2680    4.2770 C.ar   201  GVH201      0.0000
      5 C20       -47.7500  -28.9050    4.5580 C.ar   201  GVH201      0.0000
      6 C5        -44.0710  -29.4350    5.0460 C.ar   201  GVH201      0.0000
      7 C6        -44.1680  -29.4510    6.4250 C.ar   201  GVH201      0.0000
      8 N7        -47.7090  -28.9730    6.7710 N.ar   201  GVH201      0.0000
      9 C8        -48.5090  -28.8390    5.7040 C.ar   201  GVH201      0.0000
     10 H         -45.1856  -29.2601    3.1760 H      201  GVH201      0.0000
     11 H         -48.1135  -28.8245    3.5245 H      201  GVH201      0.0000
     12 H         -43.0920  -29.5627    4.5546 H      201  GVH201      0.0000
     13 H         -43.2597  -29.5954    7.0340 H      201  GVH201      0.0000
     14 H         -48.0940  -28.9555    8.0302 H      201  GVH201      0.0000
     15 H         -49.5878  -28.7009    5.8467 H      201  GVH201      0.0000
@<TRIPOS>BOND
     1     1     2   ar
     2     1     7   ar
     3     2     3   ar
     4     2     8   ar
     5     3     4   ar
     6     3     5   ar
     7     4     6   ar
     8     4    10    1
     9     5     9   ar
    10     5    11    1
    11     6     7   ar
    12     6    12    1
    13     7    13    1
    14     8     9   ar
    15     8    14    1
    16     9    15    1

