GVH_1_A_201
  -ISIS-            3D

 15 16  0  0  0  0  0  0  0  0  1 V2000
  -45.3080  -29.2760    7.0560 N   0  0  0  0  0
  -46.4340  -29.1160    6.3360 C   0  0  0  0  0
  -46.4250  -29.1060    4.9620 C   0  0  0  0  0
  -45.2230  -29.2680    4.2770 C   0  0  0  0  0
  -47.7500  -28.9050    4.5580 C   0  0  0  0  0
  -44.0710  -29.4350    5.0460 C   0  0  0  0  0
  -44.1680  -29.4510    6.4250 C   0  0  0  0  0
  -47.7090  -28.9730    6.7710 N   0  0  0  0  0
  -48.5090  -28.8390    5.7040 C   0  0  0  0  0
  -45.1856  -29.2601    3.1760 H   0  0  0  0  0
  -48.1135  -28.8245    3.5245 H   0  0  0  0  0
  -43.0920  -29.5627    4.5546 H   0  0  0  0  0
  -43.2597  -29.5954    7.0340 H   0  0  0  0  0
  -48.0940  -28.9555    8.0302 H   0  0  0  0  0
  -49.5878  -28.7009    5.8467 H   0  0  0  0  0
  1  2  2  0  0  0
  1  7  1  0  0  0
  2  3  1  0  0  0
  2  8  1  0  0  0
  3  4  2  0  0  0
  3  5  1  0  0  0
  4  6  1  0  0  0
  4 10  1  0  0  0
  5  9  2  0  0  0
  5 11  1  0  0  0
  6  7  2  0  0  0
  6 12  1  0  0  0
  7 13  1  0  0  0
  8  9  1  0  0  0
  8 14  1  0  0  0
  9 15  1  0  0  0
M  END
$$$$
