DMS_1_A_403
  -ISIS-            3D

 10  9  0  0  0  0  0  0  0  0  1 V2000
    2.1870  -19.0360    8.0580 S   0  0  0  0  0
    3.2750  -18.3490    8.8380 O   0  0  0  0  0
    0.6590  -18.2630    8.5370 C   0  0  0  0  0
    1.9520  -20.6140    8.8590 C   0  0  0  0  0
   -0.1962  -18.8238    8.1070 H   0  0  0  0  0
    0.6372  -17.2234    8.1509 H   0  0  0  0  0
    0.5683  -18.2408    9.6422 H   0  0  0  0  0
    1.0683  -21.1260    8.4260 H   0  0  0  0  0
    1.8011  -20.4738    9.9488 H   0  0  0  0  0
    2.8492  -21.2453    8.6952 H   0  0  0  0  0
  1  2  2  0  0  0
  1  3  1  0  0  0
  1  4  1  0  0  0
  3  5  1  0  0  0
  3  6  1  0  0  0
  3  7  1  0  0  0
  4  8  1  0  0  0
  4  9  1  0  0  0
  4 10  1  0  0  0
M  END
$$$$
