@<TRIPOS>MOLECULE
DMS_1_A_403
 10 9 0 0 0
SMALL
NO_CHARGES

@<TRIPOS>ATOM
      1 S           2.1870  -19.0360    8.0580 S.o    403  DMS403      0.0000
      2 O           3.2750  -18.3490    8.8380 O.2    403  DMS403      0.0000
      3 C1          0.6590  -18.2630    8.5370 C.3    403  DMS403      0.0000
      4 C2          1.9520  -20.6140    8.8590 C.3    403  DMS403      0.0000
      5 H          -0.1962  -18.8238    8.1070 H      403  DMS403      0.0000
      6 H           0.6372  -17.2234    8.1509 H      403  DMS403      0.0000
      7 H           0.5683  -18.2408    9.6422 H      403  DMS403      0.0000
      8 H           1.0683  -21.1260    8.4260 H      403  DMS403      0.0000
      9 H           1.8011  -20.4738    9.9488 H      403  DMS403      0.0000
     10 H           2.8492  -21.2453    8.6952 H      403  DMS403      0.0000
@<TRIPOS>BOND
     1     1     2    2
     2     1     3    1
     3     1     4    1
     4     3     5    1
     5     3     6    1
     6     3     7    1
     7     4     8    1
     8     4     9    1
     9     4    10    1

