@<TRIPOS>MOLECULE
SV6_1_A_602
 104 108 0 0 0
SMALL
NO_CHARGES

@<TRIPOS>ATOM
      1 CBN        11.9630   22.8680   26.2560 C.ar   602  SV6602      0.0000
      2 CBO        12.2890   24.5890   27.6980 C.ar   602  SV6602      0.0000
      3 CBP        12.6040   23.6920   28.6940 C.ar   602  SV6602      0.0000
      4 CBB        11.5840   22.3710   24.8940 C.2    602  SV6602      0.0000
      5 CBQ        12.2550   21.9650   27.2610 C.ar   602  SV6602      0.0000
      6 OBW        11.6730   23.0930   23.9010 O.2    602  SV6602      0.0000
      7 NAF        11.9620   24.1890   26.4700 N.ar   602  SV6602      0.0000
      8 NAG        12.5820   22.3700   28.4910 N.ar   602  SV6602      0.0000
      9 NAD        11.1330   21.1140   24.8720 N.am   602  SV6602      0.0000
     10 CAY        10.9550   20.2710   23.7080 C.3    602  SV6602      0.0000
     11 CAX        10.0110   19.1540   24.1690 C.2    602  SV6602      0.0000
     12 OBU        10.1750   18.6500   25.2760 O.2    602  SV6602      0.0000
     13 CBH        12.3780   19.9000   23.2430 C.3    602  SV6602      0.0000
     14 CBI        12.8600   20.8530   22.1390 C.3    602  SV6602      0.0000
     15 CBJ        13.9600   20.2360   21.2720 C.3    602  SV6602      0.0000
     16 CBK        14.8210   19.2730   22.0640 C.3    602  SV6602      0.0000
     17 CBL        14.0000   18.0820   22.5320 C.3    602  SV6602      0.0000
     18 CBM        12.5440   18.4370   22.8420 C.3    602  SV6602      0.0000
     19 NAC         9.0330   18.7670   23.3480 N.am   602  SV6602      0.0000
     20 CAW         8.2310   17.5960   23.6680 C.3    602  SV6602      0.0000
     21 CAZ         6.7250   17.8960   23.7400 C.3    602  SV6602      0.0000
     22 CBC         6.4520   18.8920   24.8660 C.3    602  SV6602      0.0000
     23 CBD         5.9610   16.6090   24.0650 C.3    602  SV6602      0.0000
     24 CBA         6.1800   18.4810   22.4340 C.3    602  SV6602      0.0000
     25 CAV         8.6300   16.4100   22.7740 C.2    602  SV6602      0.0000
     26 OBT         8.3460   16.3390   21.5890 O.2    602  SV6602      0.0000
     27 C           8.2330   13.2550   22.7100 C.2    602  SV6602      0.0000
     28 N           9.2780   15.4030   23.3710 N.am   602  SV6602      0.0000
     29 O           7.6970   12.8480   23.7400 O.2    602  SV6602      0.0000
     30 CA          9.5110   14.0980   22.7500 C.3    602  SV6602      0.0000
     31 CB         10.6380   13.5010   23.6080 C.3    602  SV6602      0.0000
     32 CG         10.5210   14.2010   24.9880 C.3    602  SV6602      0.0000
     33 CBE        12.0900   13.7680   23.1540 C.3    602  SV6602      0.0000
     34 CBF        12.5930   14.8590   24.0910 C.3    602  SV6602      0.0000
     35 CD1         9.7730   15.5000   24.7440 C.3    602  SV6602      0.0000
     36 CD2        11.9770   14.4590   25.3940 C.3    602  SV6602      0.0000
     37 NAA         5.2080    9.3920   22.1500 N.am   602  SV6602      0.0000
     38 NAE         7.7230   13.0320   21.4990 N.am   602  SV6602      0.0000
     39 CAH         6.4300   12.3630   21.2870 C.3    602  SV6602      0.0000
     40 CAI         6.6790   10.8970   20.9610 C.3    602  SV6602      0.0000
     41 CAJ         5.6370   12.9810   20.1230 C.3    602  SV6602      0.0000
     42 CAK         5.3200   14.4690   20.1300 C.3    602  SV6602      0.0000
     43 CAL         5.1300   15.0190   18.6950 C.3    602  SV6602      0.0000
     44 CAM         5.3970   10.1070   21.0330 C.2    602  SV6602      0.0000
     45 CAN         4.0250    8.6020   22.3480 C.3    602  SV6602      0.0000
     46 CAO         3.6160    8.3050   23.7500 C.3    602  SV6602      0.0000
     47 CAP         2.8200    9.2630   22.9290 C.3    602  SV6602      0.0000
     48 OBR         7.6160   10.3050   21.8090 O.3    602  SV6602      0.0000
     49 OBS         4.6050   10.1150   20.0930 O.2    602  SV6602      0.0000
     50 H          12.3042   25.6725   27.9013 H      602  SV6602      0.0000
     51 H          12.8762   24.0550   29.6990 H      602  SV6602      0.0000
     52 H          12.2659   20.8761   27.1026 H      602  SV6602      0.0000
     53 H          10.9090   20.6372   25.7585 H      602  SV6602      0.0000
     54 H          10.4305   20.8405   22.9059 H      602  SV6602      0.0000
     55 H          13.0605   20.0370   24.1201 H      602  SV6602      0.0000
     56 H          13.2539   21.7863   22.6011 H      602  SV6602      0.0000
     57 H          12.0184   21.1559   21.4750 H      602  SV6602      0.0000
     58 H          14.5902   21.0443   20.8335 H      602  SV6602      0.0000
     59 H          13.5033   19.6964   20.4097 H      602  SV6602      0.0000
     60 H          15.2625   19.8039   22.9393 H      602  SV6602      0.0000
     61 H          15.6794   18.9217   21.4458 H      602  SV6602      0.0000
     62 H          14.4826   17.6453   23.4375 H      602  SV6602      0.0000
     63 H          14.0191   17.2804   21.7570 H      602  SV6602      0.0000
     64 H          11.9038   18.2257   21.9541 H      602  SV6602      0.0000
     65 H          12.1740   17.7898   23.6640 H      602  SV6602      0.0000
     66 H           8.8750   19.2544   22.4569 H      602  SV6602      0.0000
     67 H           8.4543   17.3036   24.7136 H      602  SV6602      0.0000
     68 H           5.3669   19.1169   24.9694 H      602  SV6602      0.0000
     69 H           6.9639   19.8654   24.6965 H      602  SV6602      0.0000
     70 H           6.7957   18.5144   25.8550 H      602  SV6602      0.0000
     71 H           4.8697   16.7924   24.1833 H      602  SV6602      0.0000
     72 H           6.3118   16.1402   25.0114 H      602  SV6602      0.0000
     73 H           6.0669   15.8426   23.2658 H      602  SV6602      0.0000
     74 H           5.0863   18.6777   22.4971 H      602  SV6602      0.0000
     75 H           6.3264   17.7981   21.5695 H      602  SV6602      0.0000
     76 H           6.6585   19.4493   22.1701 H      602  SV6602      0.0000
     77 H           9.8976   14.2202   21.7116 H      602  SV6602      0.0000
     78 H          10.4919   12.3994   23.7118 H      602  SV6602      0.0000
     79 H           9.9899   13.5591   25.7287 H      602  SV6602      0.0000
     80 H          12.1541   14.0778   22.0876 H      602  SV6602      0.0000
     81 H          12.7041   12.8453   23.2726 H      602  SV6602      0.0000
     82 H          12.2456   15.8515   23.7466 H      602  SV6602      0.0000
     83 H          13.7047   14.8837   24.1405 H      602  SV6602      0.0000
     84 H           8.9470   15.5579   25.4899 H      602  SV6602      0.0000
     85 H          10.4431   16.3703   24.8942 H      602  SV6602      0.0000
     86 H          12.4450   13.5290   25.7913 H      602  SV6602      0.0000
     87 H          12.0698   15.2474   26.1736 H      602  SV6602      0.0000
     88 H           5.9568    9.4453   22.8589 H      602  SV6602      0.0000
     89 H           8.2336   13.3695   20.6710 H      602  SV6602      0.0000
     90 H           5.8015   12.4336   22.2056 H      602  SV6602      0.0000
     91 H           7.0679   10.8329   19.9178 H      602  SV6602      0.0000
     92 H           4.6661   12.4491   20.0086 H      602  SV6602      0.0000
     93 H           6.2055   12.7690   19.1868 H      602  SV6602      0.0000
     94 H           6.1530   15.0284   20.6124 H      602  SV6602      0.0000
     95 H           4.4107   14.6651   20.7432 H      602  SV6602      0.0000
     96 H           4.8791   16.1035   18.7111 H      602  SV6602      0.0000
     97 H           4.3036   14.4964   18.1631 H      602  SV6602      0.0000
     98 H           6.0525   14.9044   18.0828 H      602  SV6602      0.0000
     99 H           3.8233    7.8056   21.6312 H      602  SV6602      0.0000
    100 H           4.2228    8.7469   24.5355 H      602  SV6602      0.0000
    101 H           3.1625    7.3316   23.9167 H      602  SV6602      0.0000
    102 H           1.8607    8.8998   22.5702 H      602  SV6602      0.0000
    103 H           2.9288   10.3132   23.1862 H      602  SV6602      0.0000
    104 H           7.9868    9.5404   21.3863 H      602  SV6602      0.0000
@<TRIPOS>BOND
     1     1     4    1
     2     1     5   ar
     3     1     7   ar
     4     2     3   ar
     5     2     7   ar
     6     2    50    1
     7     3     8   ar
     8     3    51    1
     9     4     6    2
    10     4     9    1
    11     5     8   ar
    12     5    52    1
    13     9    10    1
    14     9    53    1
    15    10    11    1
    16    10    13    1
    17    10    54    1
    18    11    12    2
    19    11    19    1
    20    13    14    1
    21    13    18    1
    22    13    55    1
    23    14    15    1
    24    14    56    1
    25    14    57    1
    26    15    16    1
    27    15    58    1
    28    15    59    1
    29    16    17    1
    30    16    60    1
    31    16    61    1
    32    17    18    1
    33    17    62    1
    34    17    63    1
    35    18    64    1
    36    18    65    1
    37    19    20    1
    38    19    66    1
    39    20    21    1
    40    20    25    1
    41    20    67    1
    42    21    22    1
    43    21    23    1
    44    21    24    1
    45    22    68    1
    46    22    69    1
    47    22    70    1
    48    23    71    1
    49    23    72    1
    50    23    73    1
    51    24    74    1
    52    24    75    1
    53    24    76    1
    54    25    26    2
    55    25    28    1
    56    27    29    2
    57    27    30    1
    58    27    38    1
    59    28    30    1
    60    28    35    1
    61    30    31    1
    62    30    77    1
    63    31    32    1
    64    31    33    1
    65    31    78    1
    66    32    35    1
    67    32    36    1
    68    32    79    1
    69    33    34    1
    70    33    80    1
    71    33    81    1
    72    34    36    1
    73    34    82    1
    74    34    83    1
    75    35    84    1
    76    35    85    1
    77    36    86    1
    78    36    87    1
    79    37    44    1
    80    37    45    1
    81    37    88    1
    82    38    39    1
    83    38    89    1
    84    39    40    1
    85    39    41    1
    86    39    90    1
    87    40    44    1
    88    40    48    1
    89    40    91    1
    90    41    42    1
    91    41    92    1
    92    41    93    1
    93    42    43    1
    94    42    94    1
    95    42    95    1
    96    43    96    1
    97    43    97    1
    98    43    98    1
    99    44    49    2
   100    45    46    1
   101    45    47    1
   102    45    99    1
   103    46    47    1
   104    46   100    1
   105    46   101    1
   106    47   102    1
   107    47   103    1
   108    48   104    1

