@<TRIPOS>MOLECULE
DMS_2_A_1004
 10 9 0 0 0
SMALL
NO_CHARGES

@<TRIPOS>ATOM
      1 S          -2.4210  -18.7490   -8.3050 S.o   1004  DMS1004      0.0000
      2 O          -3.6880  -18.5720   -9.0280 O.2   1004  DMS1004      0.0000
      3 C1         -1.1900  -18.0220   -9.3410 C.3   1004  DMS1004      0.0000
      4 C2         -1.9830  -20.4450   -8.5640 C.3   1004  DMS1004      0.0000
      5 H          -0.1797  -18.2573   -8.9481 H     1004  DMS1004      0.0000
      6 H          -1.3210  -16.9205   -9.3496 H     1004  DMS1004      0.0000
      7 H          -1.2793  -18.4031  -10.3790 H     1004  DMS1004      0.0000
      8 H          -0.9558  -20.6302   -8.1886 H     1004  DMS1004      0.0000
      9 H          -2.0327  -20.6997   -9.6426 H     1004  DMS1004      0.0000
     10 H          -2.6885  -21.0954   -8.0073 H     1004  DMS1004      0.0000
@<TRIPOS>BOND
     1     1     2    2
     2     1     3    1
     3     1     4    1
     4     3     5    1
     5     3     6    1
     6     3     7    1
     7     4     8    1
     8     4     9    1
     9     4    10    1

