DMS_2_A_1004
  -ISIS-            3D

 10  9  0  0  0  0  0  0  0  0  1 V2000
   -2.4210  -18.7490   -8.3050 S   0  0  0  0  0
   -3.6880  -18.5720   -9.0280 O   0  0  0  0  0
   -1.1900  -18.0220   -9.3410 C   0  0  0  0  0
   -1.9830  -20.4450   -8.5640 C   0  0  0  0  0
   -0.1797  -18.2573   -8.9481 H   0  0  0  0  0
   -1.3210  -16.9205   -9.3496 H   0  0  0  0  0
   -1.2793  -18.4031  -10.3790 H   0  0  0  0  0
   -0.9558  -20.6302   -8.1886 H   0  0  0  0  0
   -2.0327  -20.6997   -9.6426 H   0  0  0  0  0
   -2.6885  -21.0954   -8.0073 H   0  0  0  0  0
  1  2  2  0  0  0
  1  3  1  0  0  0
  1  4  1  0  0  0
  3  5  1  0  0  0
  3  6  1  0  0  0
  3  7  1  0  0  0
  4  8  1  0  0  0
  4  9  1  0  0  0
  4 10  1  0  0  0
M  END
$$$$
