@<TRIPOS>MOLECULE
DMS_1_A_1003
 10 9 0 0 0
SMALL
NO_CHARGES

@<TRIPOS>ATOM
      1 S           6.0440   -0.9760   -6.5390 S.o   1003  DMS1003      0.0000
      2 O           6.8060   -0.7850   -7.7830 O.2   1003  DMS1003      0.0000
      3 C1          7.2500   -1.0050   -5.2500 C.3   1003  DMS1003      0.0000
      4 C2          5.5690   -2.6660   -6.5600 C.3   1003  DMS1003      0.0000
      5 H           6.7703   -1.2981   -4.2939 H     1003  DMS1003      0.0000
      6 H           7.6907    0.0063   -5.1343 H     1003  DMS1003      0.0000
      7 H           8.0576   -1.7262   -5.4920 H     1003  DMS1003      0.0000
      8 H           5.1130   -2.9404   -5.5869 H     1003  DMS1003      0.0000
      9 H           6.4496   -3.3144   -6.7475 H     1003  DMS1003      0.0000
     10 H           4.8219   -2.8305   -7.3633 H     1003  DMS1003      0.0000
@<TRIPOS>BOND
     1     1     2    2
     2     1     3    1
     3     1     4    1
     4     3     5    1
     5     3     6    1
     6     3     7    1
     7     4     8    1
     8     4     9    1
     9     4    10    1

