DMS_1_A_402
  -ISIS-            3D

 10  9  0  0  0  0  0  0  0  0  1 V2000
    7.0040  -28.2450   21.6640 S   0  0  0  0  0
    8.0050  -27.3430   22.3090 O   0  0  0  0  0
    6.0170  -27.2970   20.4740 C   0  0  0  0  0
    5.7240  -28.6740   22.8750 C   0  0  0  0  0
    5.2264  -27.9469   20.0465 H   0  0  0  0  0
    6.6756  -26.9375   19.6571 H   0  0  0  0  0
    5.5508  -26.4270   20.9802 H   0  0  0  0  0
    4.9403  -29.2872   22.3850 H   0  0  0  0  0
    5.2703  -27.7493   23.2867 H   0  0  0  0  0
    6.1819  -29.2574   23.6998 H   0  0  0  0  0
  1  2  2  0  0  0
  1  3  1  0  0  0
  1  4  1  0  0  0
  3  5  1  0  0  0
  3  6  1  0  0  0
  3  7  1  0  0  0
  4  8  1  0  0  0
  4  9  1  0  0  0
  4 10  1  0  0  0
M  END
$$$$
