@<TRIPOS>MOLECULE
DMS_2_A_404
 10 9 0 0 0
SMALL
NO_CHARGES

@<TRIPOS>ATOM
      1 S          -2.3630  -19.0360   -8.3190 S.o    404  DMS404      0.0000
      2 O          -2.3000  -20.5080   -8.0530 O.2    404  DMS404      0.0000
      3 C1         -3.9880  -18.5810   -8.9860 C.3    404  DMS404      0.0000
      4 C2         -1.3140  -18.6500   -9.7480 C.3    404  DMS404      0.0000
      5 H          -3.9952  -17.5018   -9.2418 H      404  DMS404      0.0000
      6 H          -4.7653  -18.7802   -8.2202 H      404  DMS404      0.0000
      7 H          -4.2038  -19.1813   -9.8936 H      404  DMS404      0.0000
      8 H          -1.3961  -17.5702   -9.9877 H      404  DMS404      0.0000
      9 H          -1.6337  -19.2518  -10.6234 H      404  DMS404      0.0000
     10 H          -0.2594  -18.8901   -9.5022 H      404  DMS404      0.0000
@<TRIPOS>BOND
     1     1     2    2
     2     1     3    1
     3     1     4    1
     4     3     5    1
     5     3     6    1
     6     3     7    1
     7     4     8    1
     8     4     9    1
     9     4    10    1

