@<TRIPOS>MOLECULE
DMS_2_A_406
 10 9 0 0 0
SMALL
NO_CHARGES

@<TRIPOS>ATOM
      1 S         -20.6010  -16.1650   -5.5670 S.o    406  DMS406      0.0000
      2 O         -20.7930  -15.1850   -4.4540 O.2    406  DMS406      0.0000
      3 C1        -20.8330  -17.8530   -4.9430 C.3    406  DMS406      0.0000
      4 C2        -22.0140  -16.0540   -6.6990 C.3    406  DMS406      0.0000
      5 H         -20.7635  -18.5725   -5.7843 H      406  DMS406      0.0000
      6 H         -21.8262  -17.9419   -4.4570 H      406  DMS406      0.0000
      7 H         -20.0396  -18.0801   -4.2019 H      406  DMS406      0.0000
      8 H         -21.9152  -16.8228   -7.4923 H      406  DMS406      0.0000
      9 H         -22.0295  -15.0479   -7.1658 H      406  DMS406      0.0000
     10 H         -22.9586  -16.2142   -6.1398 H      406  DMS406      0.0000
@<TRIPOS>BOND
     1     1     2    2
     2     1     3    1
     3     1     4    1
     4     3     5    1
     5     3     6    1
     6     3     7    1
     7     4     8    1
     8     4     9    1
     9     4    10    1

