@<TRIPOS>MOLECULE
DMS_1_A_403
 10 9 0 0 0
SMALL
NO_CHARGES

@<TRIPOS>ATOM
      1 S          -7.4870   17.4750   54.0340 S.o    403  DMS403      0.0000
      2 O          -7.4380   17.0020   52.6080 O.2    403  DMS403      0.0000
      3 C1         -6.0930   18.5630   54.4410 C.3    403  DMS403      0.0000
      4 C2         -7.1230   16.1090   55.1740 C.3    403  DMS403      0.0000
      5 H          -6.1476   18.8539   55.5099 H      403  DMS403      0.0000
      6 H          -6.1461   19.4746   53.8114 H      403  DMS403      0.0000
      7 H          -5.1360   18.0374   54.2452 H      403  DMS403      0.0000
      8 H          -7.1375   16.4821   56.2184 H      403  DMS403      0.0000
      9 H          -6.1253   15.6825   54.9436 H      403  DMS403      0.0000
     10 H          -7.8948   15.3209   55.0573 H      403  DMS403      0.0000
@<TRIPOS>BOND
     1     1     2    2
     2     1     3    1
     3     1     4    1
     4     3     5    1
     5     3     6    1
     6     3     7    1
     7     4     8    1
     8     4     9    1
     9     4    10    1

