DMS_1_A_403
  -ISIS-            3D

 10  9  0  0  0  0  0  0  0  0  1 V2000
   -7.4870   17.4750   54.0340 S   0  0  0  0  0
   -7.4380   17.0020   52.6080 O   0  0  0  0  0
   -6.0930   18.5630   54.4410 C   0  0  0  0  0
   -7.1230   16.1090   55.1740 C   0  0  0  0  0
   -6.1476   18.8539   55.5099 H   0  0  0  0  0
   -6.1461   19.4746   53.8114 H   0  0  0  0  0
   -5.1360   18.0374   54.2452 H   0  0  0  0  0
   -7.1375   16.4821   56.2184 H   0  0  0  0  0
   -6.1253   15.6825   54.9436 H   0  0  0  0  0
   -7.8948   15.3209   55.0573 H   0  0  0  0  0
  1  2  2  0  0  0
  1  3  1  0  0  0
  1  4  1  0  0  0
  3  5  1  0  0  0
  3  6  1  0  0  0
  3  7  1  0  0  0
  4  8  1  0  0  0
  4  9  1  0  0  0
  4 10  1  0  0  0
M  END
$$$$
