@<TRIPOS>MOLECULE
DMS_1_A_404
 10 9 0 0 0
SMALL
NO_CHARGES

@<TRIPOS>ATOM
      1 S         -30.8590   14.3360   47.4440 S.o    404  DMS404      0.0000
      2 O         -30.8360   13.1400   46.5350 O.2    404  DMS404      0.0000
      3 C1        -29.9870   13.7790   48.9450 C.3    404  DMS404      0.0000
      4 C2        -29.8030   15.6390   46.7150 C.3    404  DMS404      0.0000
      5 H         -29.8874   14.6311   49.6480 H      404  DMS404      0.0000
      6 H         -28.9796   13.4017   48.6741 H      404  DMS404      0.0000
      7 H         -30.5698   12.9688   49.4290 H      404  DMS404      0.0000
      8 H         -29.7178   16.4836   47.4289 H      404  DMS404      0.0000
      9 H         -30.2635   15.9973   45.7717 H      404  DMS404      0.0000
     10 H         -28.7952   15.2264   46.5036 H      404  DMS404      0.0000
@<TRIPOS>BOND
     1     1     2    2
     2     1     3    1
     3     1     4    1
     4     3     5    1
     5     3     6    1
     6     3     7    1
     7     4     8    1
     8     4     9    1
     9     4    10    1

