DMS_1_A_402
  -ISIS-            3D

 10  9  0  0  0  0  0  0  0  0  1 V2000
  -13.2160    7.8930   73.0710 S   0  0  0  0  0
  -14.0380    7.9620   74.3190 O   0  0  0  0  0
  -13.2120    9.4920   72.2190 C   0  0  0  0  0
  -14.0540    6.9650   71.7520 C   0  0  0  0  0
  -12.6360    9.4119   71.2746 H   0  0  0  0  0
  -12.7331   10.2501   72.8720 H   0  0  0  0  0
  -14.2525    9.8070   71.9978 H   0  0  0  0  0
  -13.4386    6.9874   70.8295 H   0  0  0  0  0
  -15.0502    7.4096   71.5497 H   0  0  0  0  0
  -14.1838    5.9122   72.0761 H   0  0  0  0  0
  1  2  2  0  0  0
  1  3  1  0  0  0
  1  4  1  0  0  0
  3  5  1  0  0  0
  3  6  1  0  0  0
  3  7  1  0  0  0
  4  8  1  0  0  0
  4  9  1  0  0  0
  4 10  1  0  0  0
M  END
$$$$
