DMS_2_A_402
  -ISIS-            3D

 10  9  0  0  0  0  0  0  0  0  1 V2000
  -29.9490    7.8930   20.8200 S   0  0  0  0  0
  -29.1270    7.9620   19.5720 O   0  0  0  0  0
  -29.9530    9.4920   21.6720 C   0  0  0  0  0
  -29.1110    6.9650   22.1390 C   0  0  0  0  0
  -30.5290    9.4119   22.6164 H   0  0  0  0  0
  -30.4319   10.2501   21.0190 H   0  0  0  0  0
  -28.9125    9.8070   21.8932 H   0  0  0  0  0
  -29.7264    6.9874   23.0615 H   0  0  0  0  0
  -28.1148    7.4096   22.3413 H   0  0  0  0  0
  -28.9812    5.9122   21.8149 H   0  0  0  0  0
  1  2  2  0  0  0
  1  3  1  0  0  0
  1  4  1  0  0  0
  3  5  1  0  0  0
  3  6  1  0  0  0
  3  7  1  0  0  0
  4  8  1  0  0  0
  4  9  1  0  0  0
  4 10  1  0  0  0
M  END
$$$$
