@<TRIPOS>MOLECULE
DMS_2_A_401
 10 9 0 0 0
SMALL
NO_CHARGES

@<TRIPOS>ATOM
      1 S         -26.2520   31.8400   39.5210 S.o    401  DMS401      0.0000
      2 O         -25.8930   33.0410   40.3330 O.2    401  DMS401      0.0000
      3 C1        -28.0310   31.7870   39.2070 C.3    401  DMS401      0.0000
      4 C2        -25.6250   32.0510   37.8380 C.3    401  DMS401      0.0000
      5 H         -28.2674   30.9229   38.5533 H      401  DMS401      0.0000
      6 H         -28.3546   32.7264   38.7141 H      401  DMS401      0.0000
      7 H         -28.5687   31.6737   40.1705 H      401  DMS401      0.0000
      8 H         -25.9276   31.1830   37.2173 H      401  DMS401      0.0000
      9 H         -24.5178   32.1117   37.8653 H      401  DMS401      0.0000
     10 H         -26.0334   32.9838   37.3978 H      401  DMS401      0.0000
@<TRIPOS>BOND
     1     1     2    2
     2     1     3    1
     3     1     4    1
     4     3     5    1
     5     3     6    1
     6     3     7    1
     7     4     8    1
     8     4     9    1
     9     4    10    1

