NEN_1_A_401
  -ISIS-            3D

 16 16  0  0  0  0  0  0  0  0  1 V2000
   10.2900  -13.2320   16.3860 O   0  0  0  0  0
    8.9710  -14.9130   17.4240 N   0  0  0  0  0
    8.7700  -14.6550   15.0870 C   0  0  0  0  0
    7.2160  -16.3420   17.6910 O   0  0  0  0  0
    9.4670  -14.1420   16.3560 C   0  0  0  0  0
    8.0510  -15.8390   16.9600 C   0  0  0  0  0
    8.2620  -16.0450   15.4800 C   0  0  0  0  0
    9.2480  -14.9250   18.8860 C   0  0  0  0  0
    9.9960  -13.7890   19.5840 C   0  0  0  0  0
    8.8517  -14.1986   14.0940 H   0  0  0  0  0
    7.8188  -16.8221   14.8493 H   0  0  0  0  0
   10.0898  -13.9801   20.6765 H   0  0  0  0  0
    9.4660  -12.8190   19.4544 H   0  0  0  0  0
   11.0237  -13.6706   19.1739 H   0  0  0  0  0
    8.2256  -14.9868   19.3065 H   0  0  0  0  0
    9.8212  -15.8699   18.9685 H   0  0  0  0  0
  1  5  2  0  0  0
  2  5  1  0  0  0
  2  6  1  0  0  0
  2  8  1  0  0  0
  3  5  1  0  0  0
  3  7  1  0  0  0
  3 10  1  0  0  0
  4  6  2  0  0  0
  6  7  1  0  0  0
  7 11  1  0  0  0
  8  9  1  0  0  0
  8 15  1  0  0  0
  8 16  1  0  0  0
  9 12  1  0  0  0
  9 13  1  0  0  0
  9 14  1  0  0  0
M  END
$$$$
