@<TRIPOS>MOLECULE
NEN_2_A_401
 16 16 0 0 0
SMALL
NO_CHARGES

@<TRIPOS>ATOM
      1 O1        -10.2900  -13.2320  -16.3860 O.2    401  NEN401      0.0000
      2 N1         -8.9710  -14.9130  -17.4240 N.ar   401  NEN401      0.0000
      3 C1         -8.7700  -14.6550  -15.0870 C.ar   401  NEN401      0.0000
      4 O2         -7.2160  -16.3420  -17.6910 O.2    401  NEN401      0.0000
      5 C2         -9.4670  -14.1420  -16.3560 C.ar   401  NEN401      0.0000
      6 C3         -8.0510  -15.8390  -16.9600 C.ar   401  NEN401      0.0000
      7 C4         -8.2620  -16.0450  -15.4800 C.ar   401  NEN401      0.0000
      8 C5         -9.2480  -14.9250  -18.8860 C.2    401  NEN401      0.0000
      9 C6         -9.9960  -13.7890  -19.5840 C.3    401  NEN401      0.0000
     10 H          -8.8517  -14.1986  -14.0940 H      401  NEN401      0.0000
     11 H          -7.8188  -16.8221  -14.8493 H      401  NEN401      0.0000
     12 H         -10.0898  -13.9801  -20.6765 H      401  NEN401      0.0000
     13 H          -9.4660  -12.8190  -19.4544 H      401  NEN401      0.0000
     14 H         -11.0237  -13.6706  -19.1739 H      401  NEN401      0.0000
     15 H          -8.2256  -14.9868  -19.3065 H      401  NEN401      0.0000
     16 H          -9.8212  -15.8699  -18.9685 H      401  NEN401      0.0000
@<TRIPOS>BOND
     1     1     5    2
     2     2     5   ar
     3     2     6   ar
     4     2     8    1
     5     3     5   ar
     6     3     7   ar
     7     3    10    1
     8     4     6    2
     9     6     7   ar
    10     7    11    1
    11     8     9    1
    12     8    15    1
    13     8    16    1
    14     9    12    1
    15     9    13    1
    16     9    14    1

