NC3_1_A_201
  -ISIS-            3D

 29 29  0  0  0  0  0  0  0  0  1 V2000
  -43.0460  -34.1920   -3.7540 C   0  0  0  0  0
  -43.5820  -33.9210   -2.4570 N   0  0  0  0  0
  -43.0150  -32.8920   -1.6540 C   0  0  0  0  0
  -43.5630  -32.7320   -0.3740 N   0  0  0  0  0
  -43.0290  -31.7470    0.5420 C   0  0  0  0  0
  -43.1300  -32.2880    1.9440 C   0  0  0  0  0
  -42.7870  -31.5850    2.8760 O   0  0  0  0  0
  -42.1690  -32.1970   -2.0160 O   0  0  0  0  0
  -43.5840  -33.4350    2.1560 O   0  0  0  0  0
  -44.0820  -34.3710   -4.8330 C   0  0  0  0  0
  -43.5000  -34.9180   -6.1100 C   0  0  0  0  0
  -42.6870  -36.1470   -5.8450 C   0  0  0  0  0
  -41.7260  -36.0520   -4.6780 C   0  0  0  0  0
  -42.3360  -35.4950   -3.4500 C   0  0  0  0  0
  -42.3057  -33.4235   -4.0783 H   0  0  0  0  0
  -44.3717  -34.4720   -2.0935 H   0  0  0  0  0
  -44.3298  -33.3415   -0.0498 H   0  0  0  0  0
  -43.5997  -30.7931    0.4690 H   0  0  0  0  0
  -41.9620  -31.5088    0.3300 H   0  0  0  0  0
  -44.5862  -33.3969   -5.0328 H   0  0  0  0  0
  -44.8789  -35.0638   -4.4741 H   0  0  0  0  0
  -42.8494  -34.1410   -6.5758 H   0  0  0  0  0
  -44.3087  -35.1339   -6.8462 H   0  0  0  0  0
  -42.1279  -36.4325   -6.7668 H   0  0  0  0  0
  -43.3877  -36.9929   -5.6468 H   0  0  0  0  0
  -40.8674  -35.4061   -4.9792 H   0  0  0  0  0
  -41.2902  -37.0566   -4.4665 H   0  0  0  0  0
  -43.0520  -36.2432   -3.0339 H   0  0  0  0  0
  -41.5469  -35.3437   -2.6756 H   0  0  0  0  0
  1  2  1  0  0  0
  1 10  1  0  0  0
  1 14  1  0  0  0
  1 15  1  0  0  0
  2  3  1  0  0  0
  2 16  1  0  0  0
  3  4  1  0  0  0
  3  8  2  0  0  0
  4  5  1  0  0  0
  4 17  1  0  0  0
  5  6  1  0  0  0
  5 18  1  0  0  0
  5 19  1  0  0  0
  6  7  2  0  0  0
  6  9  2  0  0  0
 10 11  1  0  0  0
 10 20  1  0  0  0
 10 21  1  0  0  0
 11 12  1  0  0  0
 11 22  1  0  0  0
 11 23  1  0  0  0
 12 13  1  0  0  0
 12 24  1  0  0  0
 12 25  1  0  0  0
 13 14  1  0  0  0
 13 26  1  0  0  0
 13 27  1  0  0  0
 14 28  1  0  0  0
 14 29  1  0  0  0
M  END
$$$$
