@<TRIPOS>MOLECULE
3HP_1_A_201
 18 18 0 0 0
SMALL
NO_CHARGES

@<TRIPOS>ATOM
      1 C8        -43.2170  -32.3900    2.6010 C.2    201  3HP201      0.0000
      2 O1        -43.4180  -33.6030    2.6920 O.co2  201  3HP201     -0.5000
      3 O2        -43.1480  -31.6270    3.5990 O.co2  201  3HP201     -0.5000
      4 C7        -43.0210  -31.8680    1.2390 C.3    201  3HP201      0.0000
      5 C1        -43.6940  -30.5400    1.0950 C.ar   201  3HP201      0.0000
      6 C2        -42.8960  -29.4210    1.1140 C.ar   201  3HP201      0.0000
      7 C3        -43.4870  -28.2000    0.9840 C.ar   201  3HP201      0.0000
      8 C4        -44.8810  -28.0670    0.8510 C.ar   201  3HP201      0.0000
      9 C5        -45.6890  -29.1900    0.8780 C.ar   201  3HP201      0.0000
     10 C6        -45.0880  -30.4410    0.9920 C.ar   201  3HP201      0.0000
     11 O3        -42.5830  -27.1580    0.9830 O.3    201  3HP201      0.0000
     12 H         -43.4354  -32.5671    0.4770 H      201  3HP201      0.0000
     13 H         -41.9327  -31.7906    1.0174 H      201  3HP201      0.0000
     14 H         -41.8008  -29.4952    1.2225 H      201  3HP201      0.0000
     15 H         -45.3366  -27.0689    0.7366 H      201  3HP201      0.0000
     16 H         -46.7854  -29.0982    0.7999 H      201  3HP201      0.0000
     17 H         -45.7162  -31.3481    1.0029 H      201  3HP201      0.0000
     18 H         -43.0203  -26.3215    0.9085 H      201  3HP201      0.0000
@<TRIPOS>BOND
     1     1     2   ar
     2     1     3   ar
     3     1     4    1
     4     4     5    1
     5     4    12    1
     6     4    13    1
     7     5     6   ar
     8     5    10   ar
     9     6     7   ar
    10     6    14    1
    11     7     8   ar
    12     7    11    1
    13     8     9   ar
    14     8    15    1
    15     9    10   ar
    16     9    16    1
    17    10    17    1
    18    11    18    1

