AMP_1_A_201
  -ISIS-            3D

 36 38  0  0  0  0  0  0  0  0  1 V2000
    9.9490   -9.6750   13.2690 P   0  0  0  0  0
   10.9490   -9.2590   12.1480 O   0  0  0  0  0
    8.5610   -9.1070   13.0570 O   0  0  0  0  0
    9.9360  -11.1770   13.5710 O   0  0  0  0  0
   10.5880   -9.0620   14.6360 O   0  0  0  0  0
   11.1510   -7.7280   14.6390 C   0  0  0  0  0
   11.6630   -7.4640   16.0430 C   0  0  0  0  0
   10.5120   -7.3100   16.9150 O   0  0  0  0  0
   12.4990   -8.5730   16.6720 C   0  0  0  0  0
   13.4830   -8.0010   17.5350 O   0  0  0  0  0
   11.4780   -9.3590   17.5090 C   0  0  0  0  0
   12.0630  -10.0170   18.6130 O   0  0  0  0  0
   10.5670   -8.2380   17.9800 C   0  0  0  0  0
    9.1900   -8.5990   18.2830 N   0  0  0  0  0
    8.4240   -9.6240   17.7740 C   0  0  0  0  0
    7.1670   -9.5640   18.1520 N   0  0  0  0  0
    7.0960   -8.4220   18.9460 C   0  0  0  0  0
    6.0320   -7.7960   19.6380 C   0  0  0  0  0
    4.7640   -8.2010   19.5940 N   0  0  0  0  0
    6.2970   -6.6190   20.2630 N   0  0  0  0  0
    7.5610   -6.1760   20.2910 C   0  0  0  0  0
    8.6430   -6.6830   19.6880 N   0  0  0  0  0
    8.3360   -7.8140   19.0250 C   0  0  0  0  0
   10.3856   -6.9798   14.3456 H   0  0  0  0  0
   11.9911   -7.6684   13.9160 H   0  0  0  0  0
   12.2386   -6.5138   16.0344 H   0  0  0  0  0
   12.9925   -9.2123   15.9119 H   0  0  0  0  0
   13.6775   -8.6516   18.2002 H   0  0  0  0  0
   10.9447  -10.0847   16.8634 H   0  0  0  0  0
   11.3697  -10.4332   19.1081 H   0  0  0  0  0
   11.0000   -7.7450   18.8769 H   0  0  0  0  0
    8.7150  -10.4353   17.0943 H   0  0  0  0  0
    7.7235   -5.2366   20.8467 H   0  0  0  0  0
    4.0892   -7.5929   20.0743 H   0  0  0  0  0
    4.5663   -9.0750   19.0904 H   0  0  0  0  0
    9.5945  -11.7543   12.6599 H   0  0  0  0  0
  1  2  2  0  0  0
  1  3  2  0  0  0
  1  4  1  0  0  0
  1  5  1  0  0  0
  5  6  1  0  0  0
  6  7  1  0  0  0
  6 24  1  0  0  0
  6 25  1  0  0  0
  7  8  1  0  0  0
  7  9  1  0  0  0
  7 26  1  0  0  0
  8 13  1  0  0  0
  9 10  1  0  0  0
  9 11  1  0  0  0
  9 27  1  0  0  0
 10 28  1  0  0  0
 11 12  1  0  0  0
 11 13  1  0  0  0
 11 29  1  0  0  0
 12 30  1  0  0  0
 13 14  1  0  0  0
 13 31  1  0  0  0
 14 15  1  0  0  0
 14 23  1  0  0  0
 15 16  2  0  0  0
 15 32  1  0  0  0
 16 17  1  0  0  0
 17 18  2  0  0  0
 17 23  1  0  0  0
 18 19  1  0  0  0
 18 20  1  0  0  0
 19 34  1  0  0  0
 19 35  1  0  0  0
 20 21  2  0  0  0
 21 22  1  0  0  0
 21 33  1  0  0  0
 22 23  2  0  0  0
  4 36  1  0  0  0
M  END
$$$$
