@<TRIPOS>MOLECULE
3BZ_1_A_201
 14 14 0 0 0
SMALL
NO_CHARGES

@<TRIPOS>ATOM
      1 CL3       -48.6620  -28.9870    7.3720 Cl     201  3BZ201      0.0000
      2 C3        -48.6730  -28.9840    5.5760 C.ar   201  3BZ201      0.0000
      3 C4        -49.8120  -28.6820    4.8570 C.ar   201  3BZ201      0.0000
      4 C5        -49.7650  -28.6940    3.4770 C.ar   201  3BZ201      0.0000
      5 C6        -48.5820  -29.0060    2.8300 C.ar   201  3BZ201      0.0000
      6 C2        -47.4950  -29.2620    4.9260 C.ar   201  3BZ201      0.0000
      7 C1        -47.4480  -29.2830    3.5580 C.ar   201  3BZ201      0.0000
      8 C         -46.1400  -29.6000    2.8550 C.2    201  3BZ201      0.0000
      9 O2        -46.1350  -29.7690    1.6040 O.co2  201  3BZ201     -0.5000
     10 O1        -45.0950  -29.6570    3.5580 O.co2  201  3BZ201     -0.5000
     11 H         -50.7532  -28.4364    5.3767 H      201  3BZ201      0.0000
     12 H         -50.6700  -28.4588    2.8915 H      201  3BZ201      0.0000
     13 H         -48.5616  -29.0208    1.7274 H      201  3BZ201      0.0000
     14 H         -46.5899  -29.4757    5.5182 H      201  3BZ201      0.0000
@<TRIPOS>BOND
     1     1     2    1
     2     2     3   ar
     3     2     6   ar
     4     3     4   ar
     5     3    11    1
     6     4     5   ar
     7     4    12    1
     8     5     7   ar
     9     5    13    1
    10     6     7   ar
    11     6    14    1
    12     7     8    1
    13     8     9   ar
    14     8    10   ar

