@<TRIPOS>MOLECULE
DMS_2_A_403
 10 9 0 0 0
SMALL
NO_CHARGES

@<TRIPOS>ATOM
      1 S         -28.8040   22.5780    3.2570 S.o    403  DMS403      0.0000
      2 O         -27.7330   23.1420    4.1740 O.2    403  DMS403      0.0000
      3 C1        -28.8890   20.8010    3.6960 C.3    403  DMS403      0.0000
      4 C2        -28.4610   22.3370    1.4830 C.3    403  DMS403      0.0000
      5 H         -29.6886   20.3093    3.1051 H      403  DMS403      0.0000
      6 H         -29.1232   20.7031    4.7758 H      403  DMS403      0.0000
      7 H         -27.9148   20.3138    3.4860 H      403  DMS403      0.0000
      8 H         -29.3102   21.8052    1.0073 H      403  DMS403      0.0000
      9 H         -27.5297   21.7479    1.3564 H      403  DMS403      0.0000
     10 H         -28.3349   23.3280    1.0013 H      403  DMS403      0.0000
@<TRIPOS>BOND
     1     1     2    2
     2     1     3    1
     3     1     4    1
     4     3     5    1
     5     3     6    1
     6     3     7    1
     7     4     8    1
     8     4     9    1
     9     4    10    1

