@<TRIPOS>MOLECULE
DMS_2_A_405
 10 9 0 0 0
SMALL
NO_CHARGES

@<TRIPOS>ATOM
      1 S           7.1090  -15.2310  -17.5890 S.o    405  DMS405      0.0000
      2 O           6.3400  -13.9430  -17.3660 O.2    405  DMS405      0.0000
      3 C1          8.4020  -15.0090  -18.8450 C.3    405  DMS405      0.0000
      4 C2          5.9770  -16.4300  -18.3420 C.3    405  DMS405      0.0000
      5 H           8.9086  -15.9785  -19.0283 H      405  DMS405      0.0000
      6 H           9.1436  -14.2697  -18.4795 H      405  DMS405      0.0000
      7 H           7.9474  -14.6419  -19.7879 H      405  DMS405      0.0000
      8 H           6.5212  -17.3753  -18.5430 H      405  DMS405      0.0000
      9 H           5.5776  -16.0215  -19.2929 H      405  DMS405      0.0000
     10 H           5.1383  -16.6307  -17.6445 H      405  DMS405      0.0000
@<TRIPOS>BOND
     1     1     2    2
     2     1     3    1
     3     1     4    1
     4     3     5    1
     5     3     6    1
     6     3     7    1
     7     4     8    1
     8     4     9    1
     9     4    10    1

