DMS_2_A_401
  -ISIS-            3D

 10  9  0  0  0  0  0  0  0  0  1 V2000
   -7.0050  -28.3660  -21.8440 S   0  0  0  0  0
   -7.8200  -27.2750  -22.4410 O   0  0  0  0  0
   -5.8340  -29.0210  -23.0610 C   0  0  0  0  0
   -5.8400  -27.6650  -20.6510 C   0  0  0  0  0
   -5.1910  -29.7881  -22.5830 H   0  0  0  0  0
   -5.2026  -28.1992  -23.4567 H   0  0  0  0  0
   -6.3969  -29.4857  -23.8962 H   0  0  0  0  0
   -5.1940  -28.4699  -20.2448 H   0  0  0  0  0
   -6.4053  -27.1970  -19.8193 H   0  0  0  0  0
   -5.2110  -26.8963  -21.1449 H   0  0  0  0  0
  1  2  2  0  0  0
  1  3  1  0  0  0
  1  4  1  0  0  0
  3  5  1  0  0  0
  3  6  1  0  0  0
  3  7  1  0  0  0
  4  8  1  0  0  0
  4  9  1  0  0  0
  4 10  1  0  0  0
M  END
$$$$
