DMS_2_A_402
  -ISIS-            3D

 10  9  0  0  0  0  0  0  0  0  1 V2000
   -6.3690   -0.7770    7.0090 S   0  0  0  0  0
   -7.7890   -0.4990    7.3800 O   0  0  0  0  0
   -6.0680   -2.4990    6.5230 C   0  0  0  0  0
   -5.6330   -0.9820    8.6820 C   0  0  0  0  0
   -4.9769   -2.6969    6.4980 H   0  0  0  0  0
   -6.4888   -2.6664    5.5105 H   0  0  0  0  0
   -6.5593   -3.1904    7.2379 H   0  0  0  0  0
   -4.5649   -1.2657    8.5866 H   0  0  0  0  0
   -6.1790   -1.7642    9.2485 H   0  0  0  0  0
   -5.7023   -0.0194    9.2291 H   0  0  0  0  0
  1  2  2  0  0  0
  1  3  1  0  0  0
  1  4  1  0  0  0
  3  5  1  0  0  0
  3  6  1  0  0  0
  3  7  1  0  0  0
  4  8  1  0  0  0
  4  9  1  0  0  0
  4 10  1  0  0  0
M  END
$$$$
