@<TRIPOS>MOLECULE
DMS_1_A_404
 10 9 0 0 0
SMALL
NO_CHARGES

@<TRIPOS>ATOM
      1 S           5.6020    0.2350   18.1750 S.o    404  DMS404      0.0000
      2 O           6.5320    0.9490   17.2290 O.2    404  DMS404      0.0000
      3 C1          4.6850    1.5620   19.0010 C.3    404  DMS404      0.0000
      4 C2          6.4010   -0.3740   19.7070 C.3    404  DMS404      0.0000
      5 H           4.0041    1.1301   19.7627 H      404  DMS404      0.0000
      6 H           4.0811    2.1095   18.2485 H      404  DMS404      0.0000
      7 H           5.3885    2.2692   19.4864 H      404  DMS404      0.0000
      8 H           5.6276   -0.7446   20.4105 H      404  DMS404      0.0000
      9 H           6.9835    0.4420   20.1818 H      404  DMS404      0.0000
     10 H           7.0859   -1.2072   19.4482 H      404  DMS404      0.0000
@<TRIPOS>BOND
     1     1     2    2
     2     1     3    1
     3     1     4    1
     4     3     5    1
     5     3     6    1
     6     3     7    1
     7     4     8    1
     8     4     9    1
     9     4    10    1

