DMS_1_A_405
  -ISIS-            3D

 10  9  0  0  0  0  0  0  0  0  1 V2000
   -7.1090  -15.2310   17.5890 S   0  0  0  0  0
   -6.3400  -13.9430   17.3660 O   0  0  0  0  0
   -8.4020  -15.0090   18.8450 C   0  0  0  0  0
   -5.9770  -16.4300   18.3420 C   0  0  0  0  0
   -8.9086  -15.9785   19.0283 H   0  0  0  0  0
   -9.1436  -14.2697   18.4795 H   0  0  0  0  0
   -7.9474  -14.6419   19.7879 H   0  0  0  0  0
   -6.5212  -17.3753   18.5430 H   0  0  0  0  0
   -5.5776  -16.0215   19.2929 H   0  0  0  0  0
   -5.1383  -16.6307   17.6445 H   0  0  0  0  0
  1  2  2  0  0  0
  1  3  1  0  0  0
  1  4  1  0  0  0
  3  5  1  0  0  0
  3  6  1  0  0  0
  3  7  1  0  0  0
  4  8  1  0  0  0
  4  9  1  0  0  0
  4 10  1  0  0  0
M  END
$$$$
