DMS_2_A_403
  -ISIS-            3D

 10  9  0  0  0  0  0  0  0  0  1 V2000
  -28.8040   22.5780    3.2570 S   0  0  0  0  0
  -27.7330   23.1420    4.1740 O   0  0  0  0  0
  -28.8890   20.8010    3.6960 C   0  0  0  0  0
  -28.4610   22.3370    1.4830 C   0  0  0  0  0
  -29.6886   20.3093    3.1051 H   0  0  0  0  0
  -29.1232   20.7031    4.7758 H   0  0  0  0  0
  -27.9148   20.3138    3.4860 H   0  0  0  0  0
  -29.3102   21.8052    1.0073 H   0  0  0  0  0
  -27.5297   21.7479    1.3564 H   0  0  0  0  0
  -28.3349   23.3280    1.0013 H   0  0  0  0  0
  1  2  2  0  0  0
  1  3  1  0  0  0
  1  4  1  0  0  0
  3  5  1  0  0  0
  3  6  1  0  0  0
  3  7  1  0  0  0
  4  8  1  0  0  0
  4  9  1  0  0  0
  4 10  1  0  0  0
M  END
$$$$
