@<TRIPOS>MOLECULE
DMS_1_A_1003
 10 9 0 0 0
SMALL
NO_CHARGES

@<TRIPOS>ATOM
      1 S           6.1770   -0.9620   -6.2660 S.o   1003  DMS1003      0.0000
      2 O           7.1170   -0.7610   -7.3610 O.2   1003  DMS1003      0.0000
      3 C1          7.2320   -1.0010   -4.8290 C.3   1003  DMS1003      0.0000
      4 C2          5.7290   -2.6580   -6.3460 C.3   1003  DMS1003      0.0000
      5 H           6.6425   -1.3085   -3.9411 H     1003  DMS1003      0.0000
      6 H           7.6479    0.0116   -4.6502 H     1003  DMS1003      0.0000
      7 H           8.0674   -1.7152   -4.9814 H     1003  DMS1003      0.0000
      8 H           5.1538   -2.9379   -5.4397 H     1003  DMS1003      0.0000
      9 H           6.6336   -3.2964   -6.4174 H     1003  DMS1003      0.0000
     10 H           5.0941   -2.8308   -7.2391 H     1003  DMS1003      0.0000
@<TRIPOS>BOND
     1     1     2    2
     2     1     3    1
     3     1     4    1
     4     3     5    1
     5     3     6    1
     6     3     7    1
     7     4     8    1
     8     4     9    1
     9     4    10    1

