DMS_2_A_1002
  -ISIS-            3D

 10  9  0  0  0  0  0  0  0  0  1 V2000
   -7.0110  -28.0870  -21.4060 S   0  0  0  0  0
   -7.6580  -27.0220  -22.1660 O   0  0  0  0  0
   -5.7380  -28.6950  -22.4800 C   0  0  0  0  0
   -6.0240  -27.2790  -20.1870 C   0  0  0  0  0
   -5.0976  -29.4154  -21.9311 H   0  0  0  0  0
   -5.1133  -27.8571  -22.8521 H   0  0  0  0  0
   -6.2016  -29.2136  -23.3441 H   0  0  0  0  0
   -5.3833  -28.0223  -19.6701 H   0  0  0  0  0
   -6.6849  -26.7945  -19.4394 H   0  0  0  0  0
   -5.3829  -26.5060  -20.6583 H   0  0  0  0  0
  1  2  2  0  0  0
  1  3  1  0  0  0
  1  4  1  0  0  0
  3  5  1  0  0  0
  3  6  1  0  0  0
  3  7  1  0  0  0
  4  8  1  0  0  0
  4  9  1  0  0  0
  4 10  1  0  0  0
M  END
$$$$
