@<TRIPOS>MOLECULE
DMS_2_A_1004
 10 9 0 0 0
SMALL
NO_CHARGES

@<TRIPOS>ATOM
      1 S          -2.3430  -18.9240   -8.1430 S.o   1004  DMS1004      0.0000
      2 O          -3.6190  -18.7390   -8.8820 O.2   1004  DMS1004      0.0000
      3 C1         -1.1570  -18.0120   -9.0860 C.3   1004  DMS1004      0.0000
      4 C2         -1.8180  -20.5140   -8.7320 C.3   1004  DMS1004      0.0000
      5 H          -0.1302  -18.2691   -8.7542 H     1004  DMS1004      0.0000
      6 H          -1.3192  -16.9266   -8.9238 H     1004  DMS1004      0.0000
      7 H          -1.2610  -18.2301  -10.1688 H     1004  DMS1004      0.0000
      8 H          -0.7729  -20.7085   -8.4150 H     1004  DMS1004      0.0000
      9 H          -1.8840  -20.5677   -9.8382 H     1004  DMS1004      0.0000
     10 H          -2.4705  -21.2984   -8.2964 H     1004  DMS1004      0.0000
@<TRIPOS>BOND
     1     1     2    2
     2     1     3    1
     3     1     4    1
     4     3     5    1
     5     3     6    1
     6     3     7    1
     7     4     8    1
     8     4     9    1
     9     4    10    1

