@<TRIPOS>MOLECULE
DMS_1_A_1006
 10 9 0 0 0
SMALL
NO_CHARGES

@<TRIPOS>ATOM
      1 S          21.0310   14.6250    7.9800 S.o   1006  DMS1006      0.0000
      2 O          22.4870   14.8320    7.9970 O.2   1006  DMS1006      0.0000
      3 C1         20.7750   13.1960    8.9770 C.3   1006  DMS1006      0.0000
      4 C2         20.7350   13.8160    6.4450 C.3   1006  DMS1006      0.0000
      5 H          19.7279   12.8444    8.8751 H     1006  DMS1006      0.0000
      6 H          20.9581   13.4544   10.0402 H     1006  DMS1006      0.0000
      7 H          21.4680   12.3807    8.6841 H     1006  DMS1006      0.0000
      8 H          19.6900   13.4460    6.4060 H     1006  DMS1006      0.0000
      9 H          21.4328   12.9648    6.3057 H     1006  DMS1006      0.0000
     10 H          20.8840   14.5380    5.6161 H     1006  DMS1006      0.0000
@<TRIPOS>BOND
     1     1     2    2
     2     1     3    1
     3     1     4    1
     4     3     5    1
     5     3     6    1
     6     3     7    1
     7     4     8    1
     8     4     9    1
     9     4    10    1

