DMS_1_A_1004
  -ISIS-            3D

 10  9  0  0  0  0  0  0  0  0  1 V2000
    2.3430  -18.9240    8.1430 S   0  0  0  0  0
    3.6190  -18.7390    8.8820 O   0  0  0  0  0
    1.1570  -18.0120    9.0860 C   0  0  0  0  0
    1.8180  -20.5140    8.7320 C   0  0  0  0  0
    0.1302  -18.2691    8.7542 H   0  0  0  0  0
    1.3192  -16.9266    8.9238 H   0  0  0  0  0
    1.2610  -18.2301   10.1688 H   0  0  0  0  0
    0.7729  -20.7085    8.4150 H   0  0  0  0  0
    1.8840  -20.5677    9.8382 H   0  0  0  0  0
    2.4705  -21.2984    8.2964 H   0  0  0  0  0
  1  2  2  0  0  0
  1  3  1  0  0  0
  1  4  1  0  0  0
  3  5  1  0  0  0
  3  6  1  0  0  0
  3  7  1  0  0  0
  4  8  1  0  0  0
  4  9  1  0  0  0
  4 10  1  0  0  0
M  END
$$$$
