NOL_1_A_401
  -ISIS-            3D

 93 95  0  0  0  0  0  0  0  0  1 V2000
   42.5580    9.4820  -17.8770 C   0  0  0  0  0
   43.1060    8.3180  -18.4040 C   0  0  0  0  0
   44.5120    8.2160  -18.4560 C   0  0  0  0  0
   45.3530    9.2330  -17.9810 C   0  0  0  0  0
   44.7850   10.3930  -17.4550 C   0  0  0  0  0
   43.3940   10.4970  -17.4060 C   0  0  0  0  0
   42.1840    7.2010  -18.9050 C   0  0  0  0  0
   41.6040    6.4230  -17.8420 O   0  0  0  0  0
   42.4510    5.7700  -16.8300 C   0  0  0  0  0
   41.8770    5.1120  -15.8190 N   0  0  0  0  0
   42.6740    4.2700  -14.9290 C   0  0  0  0  0
   42.0280    2.9670  -14.5490 C   0  0  0  0  0
   42.6230    1.9130  -15.1100 N   0  0  0  0  0
   42.2410    0.5370  -14.8560 C   0  0  0  0  0
   42.0630    0.2930  -13.3840 C   0  0  0  0  0
   40.8570   -0.1370  -13.0150 N   0  0  0  0  0
   40.6930   -0.6320  -11.6560 C   0  0  0  0  0
   40.5020   -2.1470  -11.6820 C   0  0  0  0  0
   40.6040   -2.7410  -10.3910 O   0  0  0  0  0
   39.6530    0.2110  -10.9040 C   0  0  0  0  0
   40.2000    1.6370  -10.7610 C   0  0  0  0  0
   41.4330    1.6910   -9.8570 C   0  0  0  0  0
   41.1410    2.7490   -8.7880 C   0  0  0  0  0
   39.7680    3.1580   -9.0320 N   0  0  0  0  0
   39.2300    2.5840  -10.1180 C   0  0  0  0  0
   38.1190    2.7890  -10.5860 O   0  0  0  0  0
   42.9750    0.4920  -12.5760 O   0  0  0  0  0
   43.2570   -0.4580  -15.4440 C   0  0  0  0  0
   43.4820   -0.2960  -16.9540 C   0  0  0  0  0
   43.9560   -1.6230  -17.5540 C   0  0  0  0  0
   44.2890   -1.5200  -19.0380 C   0  0  0  0  0
   43.5310   -0.4130  -19.7380 C   0  0  0  0  0
   42.1460   -0.2020  -19.1320 C   0  0  0  0  0
   42.1950    0.1650  -17.6480 C   0  0  0  0  0
   41.0640    2.9320  -13.7770 O   0  0  0  0  0
   43.0460    4.9620  -13.6300 C   0  0  0  0  0
   43.9880    4.0610  -12.8160 C   0  0  0  0  0
   43.6530    6.2030  -13.9730 O   0  0  0  0  0
   43.6520    7.2720  -13.0390 C   0  0  0  0  0
   42.5860    6.9630  -11.9870 C   0  0  0  0  0
   43.2690    8.5200  -13.8360 C   0  0  0  0  0
   45.0640    7.3750  -12.4000 C   0  0  0  0  0
   43.6750    5.8500  -16.9090 O   0  0  0  0  0
   41.4632    9.6067  -17.8201 H   0  0  0  0  0
   44.9720    7.3045  -18.8748 H   0  0  0  0  0
   46.4490    9.1173  -18.0260 H   0  0  0  0  0
   45.4238   11.2102  -17.0799 H   0  0  0  0  0
   42.9408   11.4107  -16.9836 H   0  0  0  0  0
   42.7436    6.5339  -19.5930 H   0  0  0  0  0
   41.3711    7.6505  -19.5122 H   0  0  0  0  0
   40.8593    5.1703  -15.6875 H   0  0  0  0  0
   43.6409    4.0332  -15.4326 H   0  0  0  0  0
   43.4105    2.0749  -15.7505 H   0  0  0  0  0
   41.2503    0.3547  -15.3299 H   0  0  0  0  0
   40.0593   -0.1425  -13.6647 H   0  0  0  0  0
   41.6481   -0.5069  -11.0965 H   0  0  0  0  0
   41.2499   -2.6187  -12.3571 H   0  0  0  0  0
   39.5029   -2.3879  -12.1035 H   0  0  0  0  0
   41.5214   -2.8187  -10.1639 H   0  0  0  0  0
   39.4463   -0.2257   -9.9004 H   0  0  0  0  0
   38.6907    0.2124  -11.4647 H   0  0  0  0  0
   40.4493    2.0549  -11.7594 H   0  0  0  0  0
   42.3485    1.9569  -10.4321 H   0  0  0  0  0
   41.6233    0.7165   -9.3535 H   0  0  0  0  0
   41.8417    3.6091   -8.8875 H   0  0  0  0  0
   41.2687    2.3272   -7.7654 H   0  0  0  0  0
   39.2438    3.8283   -8.4552 H   0  0  0  0  0
   42.8854   -1.4878  -15.2314 H   0  0  0  0  0
   44.2330   -0.3638  -14.9136 H   0  0  0  0  0
   44.2773    0.4705  -17.1218 H   0  0  0  0  0
   43.1588   -2.3905  -17.4139 H   0  0  0  0  0
   44.8479   -1.9984  -17.0004 H   0  0  0  0  0
   44.0702   -2.4975  -19.5280 H   0  0  0  0  0
   45.3832   -1.3493  -19.1686 H   0  0  0  0  0
   43.4454   -0.6385  -20.8262 H   0  0  0  0  0
   44.1044    0.5406  -19.6636 H   0  0  0  0  0
   41.5556   -1.1393  -19.2637 H   0  0  0  0  0
   41.5986    0.5871  -19.6982 H   0  0  0  0  0
   42.0779    1.2683  -17.5474 H   0  0  0  0  0
   41.3015   -0.3069  -17.1804 H   0  0  0  0  0
   42.0917    5.0985  -13.0862 H   0  0  0  0  0
   44.2986    4.5293  -11.8599 H   0  0  0  0  0
   44.9206    3.8278  -13.3746 H   0  0  0  0  0
   43.5208    3.0945  -12.5364 H   0  0  0  0  0
   42.5299    7.8049  -11.2620 H   0  0  0  0  0
   42.7970    6.0722  -11.3593 H   0  0  0  0  0
   41.5591    6.8856  -12.4071 H   0  0  0  0  0
   43.2229    9.4223  -13.1884 H   0  0  0  0  0
   42.2756    8.4136  -14.3245 H   0  0  0  0  0
   44.0061    8.7332  -14.6410 H   0  0  0  0  0
   45.1275    8.2365  -11.7002 H   0  0  0  0  0
   45.8489    7.5223  -13.1737 H   0  0  0  0  0
   45.3381    6.4673  -11.8234 H   0  0  0  0  0
  1  2  2  0  0  0
  1  6  1  0  0  0
  1 44  1  0  0  0
  2  3  1  0  0  0
  2  7  1  0  0  0
  3  4  2  0  0  0
  3 45  1  0  0  0
  4  5  1  0  0  0
  4 46  1  0  0  0
  5  6  2  0  0  0
  5 47  1  0  0  0
  6 48  1  0  0  0
  7  8  1  0  0  0
  7 49  1  0  0  0
  7 50  1  0  0  0
  8  9  1  0  0  0
  9 10  1  0  0  0
  9 43  2  0  0  0
 10 11  1  0  0  0
 10 51  1  0  0  0
 11 12  1  0  0  0
 11 36  1  0  0  0
 11 52  1  0  0  0
 12 13  1  0  0  0
 12 35  2  0  0  0
 13 14  1  0  0  0
 13 53  1  0  0  0
 14 15  1  0  0  0
 14 28  1  0  0  0
 14 54  1  0  0  0
 15 16  1  0  0  0
 15 27  2  0  0  0
 16 17  1  0  0  0
 16 55  1  0  0  0
 17 18  1  0  0  0
 17 20  1  0  0  0
 17 56  1  0  0  0
 18 19  1  0  0  0
 18 57  1  0  0  0
 18 58  1  0  0  0
 19 59  1  0  0  0
 20 21  1  0  0  0
 20 60  1  0  0  0
 20 61  1  0  0  0
 21 22  1  0  0  0
 21 25  1  0  0  0
 21 62  1  0  0  0
 22 23  1  0  0  0
 22 63  1  0  0  0
 22 64  1  0  0  0
 23 24  1  0  0  0
 23 65  1  0  0  0
 23 66  1  0  0  0
 24 25  1  0  0  0
 24 67  1  0  0  0
 25 26  2  0  0  0
 28 29  1  0  0  0
 28 68  1  0  0  0
 28 69  1  0  0  0
 29 30  1  0  0  0
 29 34  1  0  0  0
 29 70  1  0  0  0
 30 31  1  0  0  0
 30 71  1  0  0  0
 30 72  1  0  0  0
 31 32  1  0  0  0
 31 73  1  0  0  0
 31 74  1  0  0  0
 32 33  1  0  0  0
 32 75  1  0  0  0
 32 76  1  0  0  0
 33 34  1  0  0  0
 33 77  1  0  0  0
 33 78  1  0  0  0
 34 79  1  0  0  0
 34 80  1  0  0  0
 36 37  1  0  0  0
 36 38  1  0  0  0
 36 81  1  0  0  0
 37 82  1  0  0  0
 37 83  1  0  0  0
 37 84  1  0  0  0
 38 39  1  0  0  0
 39 40  1  0  0  0
 39 41  1  0  0  0
 39 42  1  0  0  0
 40 85  1  0  0  0
 40 86  1  0  0  0
 40 87  1  0  0  0
 41 88  1  0  0  0
 41 89  1  0  0  0
 41 90  1  0  0  0
 42 91  1  0  0  0
 42 92  1  0  0  0
 42 93  1  0  0  0
M  END
$$$$
