NOL_2_A_401
  -ISIS-            3D

 93 95  0  0  0  0  0  0  0  0  1 V2000
    2.8320    9.4820   17.8770 C   0  0  0  0  0
    2.2840    8.3180   18.4040 C   0  0  0  0  0
    0.8780    8.2160   18.4560 C   0  0  0  0  0
    0.0370    9.2330   17.9810 C   0  0  0  0  0
    0.6050   10.3930   17.4550 C   0  0  0  0  0
    1.9960   10.4970   17.4060 C   0  0  0  0  0
    3.2060    7.2010   18.9050 C   0  0  0  0  0
    3.7860    6.4230   17.8420 O   0  0  0  0  0
    2.9390    5.7700   16.8300 C   0  0  0  0  0
    3.5130    5.1120   15.8190 N   0  0  0  0  0
    2.7160    4.2700   14.9290 C   0  0  0  0  0
    3.3620    2.9670   14.5490 C   0  0  0  0  0
    2.7670    1.9130   15.1100 N   0  0  0  0  0
    3.1490    0.5370   14.8560 C   0  0  0  0  0
    3.3270    0.2930   13.3840 C   0  0  0  0  0
    4.5330   -0.1370   13.0150 N   0  0  0  0  0
    4.6970   -0.6320   11.6560 C   0  0  0  0  0
    4.8880   -2.1470   11.6820 C   0  0  0  0  0
    4.7860   -2.7410   10.3910 O   0  0  0  0  0
    5.7370    0.2110   10.9040 C   0  0  0  0  0
    5.1900    1.6370   10.7610 C   0  0  0  0  0
    3.9570    1.6910    9.8570 C   0  0  0  0  0
    4.2490    2.7490    8.7880 C   0  0  0  0  0
    5.6220    3.1580    9.0320 N   0  0  0  0  0
    6.1600    2.5840   10.1180 C   0  0  0  0  0
    7.2710    2.7890   10.5860 O   0  0  0  0  0
    2.4150    0.4920   12.5760 O   0  0  0  0  0
    2.1330   -0.4580   15.4440 C   0  0  0  0  0
    1.9080   -0.2960   16.9540 C   0  0  0  0  0
    1.4340   -1.6230   17.5540 C   0  0  0  0  0
    1.1010   -1.5200   19.0380 C   0  0  0  0  0
    1.8590   -0.4130   19.7380 C   0  0  0  0  0
    3.2440   -0.2020   19.1320 C   0  0  0  0  0
    3.1950    0.1650   17.6480 C   0  0  0  0  0
    4.3260    2.9320   13.7770 O   0  0  0  0  0
    2.3440    4.9620   13.6300 C   0  0  0  0  0
    1.4020    4.0610   12.8160 C   0  0  0  0  0
    1.7370    6.2030   13.9730 O   0  0  0  0  0
    1.7380    7.2720   13.0390 C   0  0  0  0  0
    2.8040    6.9630   11.9870 C   0  0  0  0  0
    2.1210    8.5200   13.8360 C   0  0  0  0  0
    0.3260    7.3750   12.4000 C   0  0  0  0  0
    1.7150    5.8500   16.9090 O   0  0  0  0  0
    3.9268    9.6067   17.8200 H   0  0  0  0  0
    0.4180    7.3045   18.8747 H   0  0  0  0  0
   -1.0590    9.1172   18.0260 H   0  0  0  0  0
   -0.0338   11.2102   17.0799 H   0  0  0  0  0
    2.4492   11.4107   16.9835 H   0  0  0  0  0
    2.6465    6.5340   19.5931 H   0  0  0  0  0
    4.0189    7.6506   19.5121 H   0  0  0  0  0
    4.5306    5.1702   15.6873 H   0  0  0  0  0
    1.7491    4.0332   15.4327 H   0  0  0  0  0
    1.9790    2.0748   15.7500 H   0  0  0  0  0
    4.1397    0.3547   15.3299 H   0  0  0  0  0
    5.3308   -0.1411   13.6651 H   0  0  0  0  0
    3.7423   -0.5101   11.0948 H   0  0  0  0  0
    4.1212   -2.6067   12.3444 H   0  0  0  0  0
    5.8801   -2.3899   12.1207 H   0  0  0  0  0
    4.8760   -3.6802   10.4825 H   0  0  0  0  0
    5.9438   -0.2258    9.9005 H   0  0  0  0  0
    6.6993    0.2124   11.4648 H   0  0  0  0  0
    4.9407    2.0549   11.7595 H   0  0  0  0  0
    3.0416    1.9569   10.4321 H   0  0  0  0  0
    3.7666    0.7165    9.3536 H   0  0  0  0  0
    3.5482    3.6091    8.8875 H   0  0  0  0  0
    4.1212    2.3272    7.7654 H   0  0  0  0  0
    6.1459    3.8283    8.4549 H   0  0  0  0  0
    2.5046   -1.4878   15.2314 H   0  0  0  0  0
    1.1570   -0.3638   14.9136 H   0  0  0  0  0
    1.1127    0.4705   17.1218 H   0  0  0  0  0
    2.2311   -2.3906   17.4139 H   0  0  0  0  0
    0.5421   -1.9984   17.0004 H   0  0  0  0  0
    1.3198   -2.4975   19.5280 H   0  0  0  0  0
    0.0068   -1.3493   19.1686 H   0  0  0  0  0
    1.9447   -0.6385   20.8262 H   0  0  0  0  0
    1.2856    0.5406   19.6637 H   0  0  0  0  0
    3.8345   -1.1392   19.2638 H   0  0  0  0  0
    3.7913    0.5872   19.6981 H   0  0  0  0  0
    3.3123    1.2683   17.5473 H   0  0  0  0  0
    4.0885   -0.3071   17.1805 H   0  0  0  0  0
    3.2984    5.0985   13.0860 H   0  0  0  0  0
    1.0918    4.5291   11.8597 H   0  0  0  0  0
    0.4692    3.8282   13.3744 H   0  0  0  0  0
    1.8690    3.0943   12.5367 H   0  0  0  0  0
    2.8611    7.8055   11.2628 H   0  0  0  0  0
    2.5922    6.0730   11.3584 H   0  0  0  0  0
    3.8308    6.8842   12.4072 H   0  0  0  0  0
    2.1674    9.4223   13.1884 H   0  0  0  0  0
    3.1143    8.4135   14.3248 H   0  0  0  0  0
    1.3838    8.7333   14.6408 H   0  0  0  0  0
    0.2625    8.2365   11.7003 H   0  0  0  0  0
   -0.4589    7.5222   13.1737 H   0  0  0  0  0
    0.0519    6.4673   11.8233 H   0  0  0  0  0
  1  2  2  0  0  0
  1  6  1  0  0  0
  1 44  1  0  0  0
  2  3  1  0  0  0
  2  7  1  0  0  0
  3  4  2  0  0  0
  3 45  1  0  0  0
  4  5  1  0  0  0
  4 46  1  0  0  0
  5  6  2  0  0  0
  5 47  1  0  0  0
  6 48  1  0  0  0
  7  8  1  0  0  0
  7 49  1  0  0  0
  7 50  1  0  0  0
  8  9  1  0  0  0
  9 10  1  0  0  0
  9 43  2  0  0  0
 10 11  1  0  0  0
 10 51  1  0  0  0
 11 12  1  0  0  0
 11 36  1  0  0  0
 11 52  1  0  0  0
 12 13  1  0  0  0
 12 35  2  0  0  0
 13 14  1  0  0  0
 13 53  1  0  0  0
 14 15  1  0  0  0
 14 28  1  0  0  0
 14 54  1  0  0  0
 15 16  1  0  0  0
 15 27  2  0  0  0
 16 17  1  0  0  0
 16 55  1  0  0  0
 17 18  1  0  0  0
 17 20  1  0  0  0
 17 56  1  0  0  0
 18 19  1  0  0  0
 18 57  1  0  0  0
 18 58  1  0  0  0
 19 59  1  0  0  0
 20 21  1  0  0  0
 20 60  1  0  0  0
 20 61  1  0  0  0
 21 22  1  0  0  0
 21 25  1  0  0  0
 21 62  1  0  0  0
 22 23  1  0  0  0
 22 63  1  0  0  0
 22 64  1  0  0  0
 23 24  1  0  0  0
 23 65  1  0  0  0
 23 66  1  0  0  0
 24 25  1  0  0  0
 24 67  1  0  0  0
 25 26  2  0  0  0
 28 29  1  0  0  0
 28 68  1  0  0  0
 28 69  1  0  0  0
 29 30  1  0  0  0
 29 34  1  0  0  0
 29 70  1  0  0  0
 30 31  1  0  0  0
 30 71  1  0  0  0
 30 72  1  0  0  0
 31 32  1  0  0  0
 31 73  1  0  0  0
 31 74  1  0  0  0
 32 33  1  0  0  0
 32 75  1  0  0  0
 32 76  1  0  0  0
 33 34  1  0  0  0
 33 77  1  0  0  0
 33 78  1  0  0  0
 34 79  1  0  0  0
 34 80  1  0  0  0
 36 37  1  0  0  0
 36 38  1  0  0  0
 36 81  1  0  0  0
 37 82  1  0  0  0
 37 83  1  0  0  0
 37 84  1  0  0  0
 38 39  1  0  0  0
 39 40  1  0  0  0
 39 41  1  0  0  0
 39 42  1  0  0  0
 40 85  1  0  0  0
 40 86  1  0  0  0
 40 87  1  0  0  0
 41 88  1  0  0  0
 41 89  1  0  0  0
 41 90  1  0  0  0
 42 91  1  0  0  0
 42 92  1  0  0  0
 42 93  1  0  0  0
M  END
$$$$
