MRD_1_A_307
  -ISIS-            3D

 22 21  0  0  0  0  0  0  0  0  1 V2000
  -27.1780  -21.4050  -16.7580 C   0  0  0  0  0
  -27.6890  -22.1810  -17.9650 C   0  0  0  0  0
  -28.2990  -21.0600  -18.7020 O   0  0  0  0  0
  -26.4950  -22.7530  -18.6400 C   0  0  0  0  0
  -28.7080  -23.3300  -17.7930 C   0  0  0  0  0
  -28.6940  -24.3110  -16.5990 C   0  0  0  0  0
  -29.1480  -23.5880  -15.4250 O   0  0  0  0  0
  -27.3900  -25.1620  -16.4780 C   0  0  0  0  0
  -26.6373  -22.0613  -16.0425 H   0  0  0  0  0
  -28.0128  -20.9394  -16.1892 H   0  0  0  0  0
  -26.4785  -20.5859  -17.0363 H   0  0  0  0  0
  -28.5435  -21.3723  -19.5629 H   0  0  0  0  0
  -26.7498  -23.2569  -19.5977 H   0  0  0  0  0
  -25.9523  -23.4950  -18.0198 H   0  0  0  0  0
  -25.7535  -21.9664  -18.9016 H   0  0  0  0  0
  -28.7153  -23.9342  -18.7279 H   0  0  0  0  0
  -29.7157  -22.8535  -17.7772 H   0  0  0  0  0
  -29.4946  -25.0582  -16.8271 H   0  0  0  0  0
  -29.2236  -24.2056  -14.7101 H   0  0  0  0  0
  -27.5150  -25.9769  -15.7318 H   0  0  0  0  0
  -26.5298  -24.5466  -16.1400 H   0  0  0  0  0
  -27.1176  -25.6398  -17.4441 H   0  0  0  0  0
  1  2  1  0  0  0
  1  9  1  0  0  0
  1 10  1  0  0  0
  1 11  1  0  0  0
  2  3  1  0  0  0
  2  4  1  0  0  0
  2  5  1  0  0  0
  3 12  1  0  0  0
  4 13  1  0  0  0
  4 14  1  0  0  0
  4 15  1  0  0  0
  5  6  1  0  0  0
  5 16  1  0  0  0
  5 17  1  0  0  0
  6  7  1  0  0  0
  6  8  1  0  0  0
  6 18  1  0  0  0
  7 19  1  0  0  0
  8 20  1  0  0  0
  8 21  1  0  0  0
  8 22  1  0  0  0
M  END
$$$$
