@<TRIPOS>MOLECULE
DMS_2_A_401
 10 9 0 0 0
SMALL
NO_CHARGES

@<TRIPOS>ATOM
      1 S          -6.6870  -27.9440  -21.4540 S.o    401  DMS401      0.0000
      2 O          -7.6670  -27.2120  -22.2740 O.2    401  DMS401      0.0000
      3 C1         -5.4000  -28.4810  -22.5660 C.3    401  DMS401      0.0000
      4 C2         -5.7260  -26.7240  -20.6350 C.3    401  DMS401      0.0000
      5 H          -4.5556  -28.9091  -21.9881 H      401  DMS401      0.0000
      6 H          -5.0365  -27.6310  -23.1796 H      401  DMS401      0.0000
      7 H          -5.8036  -29.2639  -23.2403 H      401  DMS401      0.0000
      8 H          -4.8706  -27.2007  -20.1143 H      401  DMS401      0.0000
      9 H          -6.3544  -26.2061  -19.8817 H      401  DMS401      0.0000
     10 H          -5.3455  -25.9740  -21.3588 H      401  DMS401      0.0000
@<TRIPOS>BOND
     1     1     2    2
     2     1     3    1
     3     1     4    1
     4     3     5    1
     5     3     6    1
     6     3     7    1
     7     4     8    1
     8     4     9    1
     9     4    10    1

