@<TRIPOS>MOLECULE
DMS_1_A_403
 10 9 0 0 0
SMALL
NO_CHARGES

@<TRIPOS>ATOM
      1 S           2.2350  -18.9810    8.2520 S.o    403  DMS403      0.0000
      2 O           3.4860  -18.7750    9.0530 O.2    403  DMS403      0.0000
      3 C1          0.9330  -18.1560    9.1420 C.3    403  DMS403      0.0000
      4 C2          1.7250  -20.6560    8.5880 C.3    403  DMS403      0.0000
      5 H          -0.0479  -18.3991    8.6844 H      403  DMS403      0.0000
      6 H           1.0911  -17.0594    9.0885 H      403  DMS403      0.0000
      7 H           0.9330  -18.4694   10.2058 H      403  DMS403      0.0000
      8 H           0.7239  -20.8397    8.1466 H      403  DMS403      0.0000
      9 H           1.6861  -20.8363    9.6816 H      403  DMS403      0.0000
     10 H           2.4520  -21.3583    8.1315 H      403  DMS403      0.0000
@<TRIPOS>BOND
     1     1     2    2
     2     1     3    1
     3     1     4    1
     4     3     5    1
     5     3     6    1
     6     3     7    1
     7     4     8    1
     8     4     9    1
     9     4    10    1

