DMS_2_A_403
  -ISIS-            3D

 10  9  0  0  0  0  0  0  0  0  1 V2000
   -2.2350  -18.9810   -8.2520 S   0  0  0  0  0
   -3.4860  -18.7750   -9.0530 O   0  0  0  0  0
   -0.9330  -18.1560   -9.1420 C   0  0  0  0  0
   -1.7250  -20.6560   -8.5880 C   0  0  0  0  0
    0.0479  -18.3991   -8.6844 H   0  0  0  0  0
   -1.0911  -17.0594   -9.0885 H   0  0  0  0  0
   -0.9330  -18.4694  -10.2058 H   0  0  0  0  0
   -0.7239  -20.8397   -8.1466 H   0  0  0  0  0
   -1.6861  -20.8363   -9.6816 H   0  0  0  0  0
   -2.4520  -21.3583   -8.1315 H   0  0  0  0  0
  1  2  2  0  0  0
  1  3  1  0  0  0
  1  4  1  0  0  0
  3  5  1  0  0  0
  3  6  1  0  0  0
  3  7  1  0  0  0
  4  8  1  0  0  0
  4  9  1  0  0  0
  4 10  1  0  0  0
M  END
$$$$
