@<TRIPOS>MOLECULE
DMS_2_A_406
 10 9 0 0 0
SMALL
NO_CHARGES

@<TRIPOS>ATOM
      1 S          11.5360  -14.3330   26.4930 S.o    406  DMS406      0.0000
      2 O          10.6620  -14.1680   27.6960 O.2    406  DMS406      0.0000
      3 C1         12.7920  -15.6000   26.8230 C.3    406  DMS406      0.0000
      4 C2         12.6040  -12.8780   26.3000 C.3    406  DMS406      0.0000
      5 H          13.4767  -15.6792   25.9540 H      406  DMS406      0.0000
      6 H          12.2920  -16.5769   26.9842 H      406  DMS406      0.0000
      7 H          13.3704  -15.3292   27.7300 H      406  DMS406      0.0000
      8 H          13.2931  -13.0341   25.4450 H      406  DMS406      0.0000
      9 H          13.1909  -12.7165   27.2274 H      406  DMS406      0.0000
     10 H          11.9743  -11.9862   26.1037 H      406  DMS406      0.0000
@<TRIPOS>BOND
     1     1     2    2
     2     1     3    1
     3     1     4    1
     4     3     5    1
     5     3     6    1
     6     3     7    1
     7     4     8    1
     8     4     9    1
     9     4    10    1

