@<TRIPOS>MOLECULE
DMS_2_A_402
 10 9 0 0 0
SMALL
NO_CHARGES

@<TRIPOS>ATOM
      1 S         -31.2230  -31.8510   45.0290 S.o    402  DMS402      0.0000
      2 O         -29.7810  -31.5370   45.2640 O.2    402  DMS402      0.0000
      3 C1        -31.9980  -32.3600   46.5900 C.3    402  DMS402      0.0000
      4 C2        -32.1270  -30.3090   44.7220 C.3    402  DMS402      0.0000
      5 H         -33.0833  -32.5234   46.4296 H      402  DMS402      0.0000
      6 H         -31.8488  -31.5737   47.3582 H      402  DMS402      0.0000
      7 H         -31.5335  -33.3056   46.9371 H      402  DMS402      0.0000
      8 H         -33.2090  -30.5281   44.6143 H      402  DMS402      0.0000
      9 H         -31.7532  -29.8464   43.7857 H      402  DMS402      0.0000
     10 H         -31.9713  -29.6066   45.5664 H      402  DMS402      0.0000
@<TRIPOS>BOND
     1     1     2    2
     2     1     3    1
     3     1     4    1
     4     3     5    1
     5     3     6    1
     6     3     7    1
     7     4     8    1
     8     4     9    1
     9     4    10    1

