DMS_2_A_402
  -ISIS-            3D

 10  9  0  0  0  0  0  0  0  0  1 V2000
  -31.2230  -31.8510   45.0290 S   0  0  0  0  0
  -29.7810  -31.5370   45.2640 O   0  0  0  0  0
  -31.9980  -32.3600   46.5900 C   0  0  0  0  0
  -32.1270  -30.3090   44.7220 C   0  0  0  0  0
  -33.0833  -32.5234   46.4296 H   0  0  0  0  0
  -31.8488  -31.5737   47.3582 H   0  0  0  0  0
  -31.5335  -33.3056   46.9371 H   0  0  0  0  0
  -33.2090  -30.5281   44.6143 H   0  0  0  0  0
  -31.7532  -29.8464   43.7857 H   0  0  0  0  0
  -31.9713  -29.6066   45.5664 H   0  0  0  0  0
  1  2  2  0  0  0
  1  3  1  0  0  0
  1  4  1  0  0  0
  3  5  1  0  0  0
  3  6  1  0  0  0
  3  7  1  0  0  0
  4  8  1  0  0  0
  4  9  1  0  0  0
  4 10  1  0  0  0
M  END
$$$$
