@<TRIPOS>MOLECULE
DMS_1_A_402
 10 9 0 0 0
SMALL
NO_CHARGES

@<TRIPOS>ATOM
      1 S           6.1250   -1.0180   -6.2360 S.o    402  DMS402      0.0000
      2 O           7.1110   -0.6930   -7.3160 O.2    402  DMS402      0.0000
      3 C1          7.0590   -1.0470   -4.7090 C.3    402  DMS402      0.0000
      4 C2          5.8020   -2.7600   -6.3210 C.3    402  DMS402      0.0000
      5 H           6.4163   -1.4122   -3.8819 H      402  DMS402      0.0000
      6 H           7.4002   -0.0189   -4.4704 H      402  DMS402      0.0000
      7 H           7.9446   -1.7072   -4.8105 H      402  DMS402      0.0000
      8 H           5.1908   -3.0735   -5.4500 H      402  DMS402      0.0000
      9 H           6.7533   -3.3304   -6.3305 H      402  DMS402      0.0000
     10 H           5.2395   -2.9828   -7.2508 H      402  DMS402      0.0000
@<TRIPOS>BOND
     1     1     2    2
     2     1     3    1
     3     1     4    1
     4     3     5    1
     5     3     6    1
     6     3     7    1
     7     4     8    1
     8     4     9    1
     9     4    10    1

