IMD_1_B_302
  -ISIS-            3D

  9  9  0  0  0  0  0  0  0  0  1 V2000
   -3.1860    9.7040  -92.2580 N   0  0  0  0  0
   -1.9150    9.7210  -91.8000 C   0  0  0  0  0
   -1.6070   10.9810  -91.4180 N   0  0  0  0  0
   -2.6860   11.7620  -91.6350 C   0  0  0  0  0
   -3.6840   10.9550  -92.1650 C   0  0  0  0  0
   -3.6853    8.8799  -92.6146 H   0  0  0  0  0
   -1.1782    8.9123  -91.7116 H   0  0  0  0  0
   -2.6537   12.8306  -91.3930 H   0  0  0  0  0
   -4.6977   11.2637  -92.4600 H   0  0  0  0  0
  1  2  2  0  0  0
  1  5  1  0  0  0
  1  6  1  0  0  0
  2  3  1  0  0  0
  2  7  1  0  0  0
  3  4  1  0  0  0
  4  5  1  0  0  0
  4  8  1  0  0  0
  5  9  1  0  0  0
M  END
$$$$
