@<TRIPOS>MOLECULE
IMD_1_B_302
 9 9 0 0 0
SMALL
NO_CHARGES

@<TRIPOS>ATOM
      1 N1         -3.1860    9.7040  -92.2580 N.ar   302  IMD302      0.0000
      2 C2         -1.9150    9.7210  -91.8000 C.ar   302  IMD302      0.0000
      3 N3         -1.6070   10.9810  -91.4180 N.ar   302  IMD302      0.0000
      4 C4         -2.6860   11.7620  -91.6350 C.ar   302  IMD302      0.0000
      5 C5         -3.6840   10.9550  -92.1650 C.ar   302  IMD302      0.0000
      6 H          -3.6853    8.8799  -92.6146 H      302  IMD302      0.0000
      7 H          -1.1782    8.9123  -91.7116 H      302  IMD302      0.0000
      8 H          -2.6537   12.8306  -91.3930 H      302  IMD302      0.0000
      9 H          -4.6977   11.2637  -92.4600 H      302  IMD302      0.0000
@<TRIPOS>BOND
     1     1     2   ar
     2     1     5   ar
     3     1     6    1
     4     2     3   ar
     5     2     7    1
     6     3     4   ar
     7     4     5   ar
     8     4     8    1
     9     5     9    1

