@<TRIPOS>MOLECULE
PG6_1_L_301
 44 43 0 0 0
SMALL
NO_CHARGES

@<TRIPOS>ATOM
      1 C1        -38.0830    8.2170  -61.0870 C.3    301  PG6301      0.0000
      2 O1        -37.0540    7.9660  -60.1700 O.3    301  PG6301      0.0000
      3 C2        -35.8480    7.5500  -60.7480 C.3    301  PG6301      0.0000
      4 C3        -34.8740    8.7250  -60.8330 C.3    301  PG6301      0.0000
      5 O2        -33.6560    8.2810  -61.3620 O.3    301  PG6301      0.0000
      6 C4        -32.9330    9.2720  -62.0370 C.3    301  PG6301      0.0000
      7 C5        -33.7550    9.8030  -63.2100 C.3    301  PG6301      0.0000
      8 O3        -33.6840   11.2020  -63.2380 O.3    301  PG6301      0.0000
      9 C6        -34.6450   11.8080  -64.0570 C.3    301  PG6301      0.0000
     10 C7        -35.5720   12.6820  -63.2100 C.3    301  PG6301      0.0000
     11 O4        -34.9240   13.8750  -62.8700 O.3    301  PG6301      0.0000
     12 C8        -35.7900   14.8800  -62.4200 C.3    301  PG6301      0.0000
     13 C9        -35.0780   15.7560  -61.3870 C.3    301  PG6301      0.0000
     14 O5        -34.3970   16.7960  -62.0310 O.3    301  PG6301      0.0000
     15 C10       -35.2230   17.5900  -62.8350 C.3    301  PG6301      0.0000
     16 C11       -34.3900   18.3770  -63.8460 C.3    301  PG6301      0.0000
     17 O6        -35.1660   18.6550  -64.9810 O.3    301  PG6301      0.0000
     18 C12       -36.3440   19.3760  -64.7340 C.3    301  PG6301      0.0000
     19 H         -38.9801    8.5748  -60.5418 H      301  PG6301      0.0000
     20 H         -38.3583    7.2916  -61.6342 H      301  PG6301      0.0000
     21 H         -37.7839    9.0006  -61.8137 H      301  PG6301      0.0000
     22 H         -36.0129    7.0933  -61.7456 H      301  PG6301      0.0000
     23 H         -35.4102    6.7572  -60.1059 H      301  PG6301      0.0000
     24 H         -34.6875    9.1264  -59.8144 H      301  PG6301      0.0000
     25 H         -35.3353    9.5543  -61.3978 H      301  PG6301      0.0000
     26 H         -31.9743    8.8432  -62.3941 H      301  PG6301      0.0000
     27 H         -32.6730   10.0841  -61.3262 H      301  PG6301      0.0000
     28 H         -34.8052    9.4577  -63.2046 H      301  PG6301      0.0000
     29 H         -33.3291    9.4075  -64.1568 H      301  PG6301      0.0000
     30 H         -35.2378   11.0545  -64.6157 H      301  PG6301      0.0000
     31 H         -34.1307   12.4254  -64.8223 H      301  PG6301      0.0000
     32 H         -35.8986   12.1432  -62.2963 H      301  PG6301      0.0000
     33 H         -36.4817   12.9078  -63.8071 H      301  PG6301      0.0000
     34 H         -36.6284   14.3953  -61.8722 H      301  PG6301      0.0000
     35 H         -36.2777   15.3517  -63.2857 H      301  PG6301      0.0000
     36 H         -34.3622   15.1621  -60.7829 H      301  PG6301      0.0000
     37 H         -35.8126   16.1899  -60.6761 H      301  PG6301      0.0000
     38 H         -35.7973   18.2843  -62.1858 H      301  PG6301      0.0000
     39 H         -35.9626   17.0086  -63.4012 H      301  PG6301      0.0000
     40 H         -33.5142   17.7769  -64.1692 H      301  PG6301      0.0000
     41 H         -33.9941   19.3135  -63.4022 H      301  PG6301      0.0000
     42 H         -36.7972   19.6692  -65.7030 H      301  PG6301      0.0000
     43 H         -36.1303   20.3039  -64.1640 H      301  PG6301      0.0000
     44 H         -37.0939   18.7701  -64.1879 H      301  PG6301      0.0000
@<TRIPOS>BOND
     1     1     2    1
     2     1    19    1
     3     1    20    1
     4     1    21    1
     5     2     3    1
     6     3     4    1
     7     3    22    1
     8     3    23    1
     9     4     5    1
    10     4    24    1
    11     4    25    1
    12     5     6    1
    13     6     7    1
    14     6    26    1
    15     6    27    1
    16     7     8    1
    17     7    28    1
    18     7    29    1
    19     8     9    1
    20     9    10    1
    21     9    30    1
    22     9    31    1
    23    10    11    1
    24    10    32    1
    25    10    33    1
    26    11    12    1
    27    12    13    1
    28    12    34    1
    29    12    35    1
    30    13    14    1
    31    13    36    1
    32    13    37    1
    33    14    15    1
    34    15    16    1
    35    15    38    1
    36    15    39    1
    37    16    17    1
    38    16    40    1
    39    16    41    1
    40    17    18    1
    41    18    42    1
    42    18    43    1
    43    18    44    1

