DMS_1_A_402
  -ISIS-            3D

 10  9  0  0  0  0  0  0  0  0  1 V2000
   -0.7690    9.2750   -7.5860 S   0  0  0  0  0
   -1.9980    8.7540   -6.9790 O   0  0  0  0  0
   -0.3570   10.6230   -6.5550 C   0  0  0  0  0
    0.4650    8.1630   -7.0440 C   0  0  0  0  0
    0.6600   10.9908   -6.8017 H   0  0  0  0  0
   -0.3893   10.3271   -5.4862 H   0  0  0  0  0
   -1.0801   11.4480   -6.7197 H   0  0  0  0  0
    1.4698    8.5654   -7.2867 H   0  0  0  0  0
    0.3392    7.1909   -7.5634 H   0  0  0  0  0
    0.3924    7.9958   -5.9496 H   0  0  0  0  0
  1  2  2  0  0  0
  1  3  1  0  0  0
  1  4  1  0  0  0
  3  5  1  0  0  0
  3  6  1  0  0  0
  3  7  1  0  0  0
  4  8  1  0  0  0
  4  9  1  0  0  0
  4 10  1  0  0  0
M  END
$$$$
