@<TRIPOS>MOLECULE
H35_1_A_201
 25 27 0 0 0
SMALL
NO_CHARGES

@<TRIPOS>ATOM
      1 CAM       -50.7880  -31.7130    8.2300 C.ar   201  H35201      0.0000
      2 CAO       -50.9550  -33.0040    7.7430 C.ar   201  H35201      0.0000
      3 CAN       -50.6960  -32.9710    6.4000 C.ar   201  H35201      0.0000
      4 OAL       -50.4010  -31.7130    6.0670 O.3    201  H35201      0.0000
      5 CAK       -50.4290  -30.9320    7.1630 C.ar   201  H35201      0.0000
      6 CAP       -50.1310  -29.4330    7.1880 C.3    201  H35201      0.0000
      7 N6        -48.6990  -29.2050    7.1980 N.pl3  201  H35201      0.0000
      8 C6        -47.9740  -29.2670    5.9380 C.ar   201  H35201      0.0000
      9 N1        -48.5870  -29.1560    4.7980 N.ar   201  H35201      0.0000
     10 C2        -47.9510  -29.2160    3.6610 C.ar   201  H35201      0.0000
     11 N3        -46.6450  -29.3550    3.5830 N.ar   201  H35201      0.0000
     12 C4        -45.9590  -29.4520    4.7150 C.ar   201  H35201      0.0000
     13 C5        -46.6000  -29.3880    5.9220 C.ar   201  H35201      0.0000
     14 N7        -45.6810  -29.5100    6.8840 N.ar   201  H35201      0.0000
     15 C8        -44.5360  -29.6120    6.2800 C.ar   201  H35201      0.0000
     16 N9        -44.6660  -29.5790    4.9710 N.ar   201  H35201      0.0000
     17 H         -50.9157  -31.3879    9.2696 H      201  H35201      0.0000
     18 H         -51.2392  -33.8871    8.3284 H      201  H35201      0.0000
     19 H         -50.6836  -33.6898    5.5794 H      201  H35201      0.0000
     20 H         -50.3799  -28.9348    8.1423 H      201  H35201      0.0000
     21 H         -50.3219  -28.9497    6.2160 H      201  H35201      0.0000
     22 H         -48.1717  -29.0627    8.0714 H      201  H35201      0.0000
     23 H         -48.5296  -29.1295    2.7272 H      201  H35201      0.0000
     24 H         -43.5390  -29.7239    6.7245 H      201  H35201      0.0000
     25 H         -43.6980  -29.6656    4.0826 H      201  H35201      0.0000
@<TRIPOS>BOND
     1     1     2   ar
     2     1     5   ar
     3     1    17    1
     4     2     3   ar
     5     2    18    1
     6     3     4   ar
     7     3    19    1
     8     4     5   ar
     9     5     6    1
    10     6     7    1
    11     6    20    1
    12     6    21    1
    13     7     8    1
    14     7    22    1
    15     8     9   ar
    16     8    13   ar
    17     9    10   ar
    18    10    11   ar
    19    10    23    1
    20    11    12   ar
    21    12    13   ar
    22    12    16   ar
    23    13    14   ar
    24    14    15   ar
    25    15    16   ar
    26    15    24    1
    27    16    25    1

