BNZ_1_A_602
  -ISIS-            3D

 12 12  0  0  0  0  0  0  0  0  1 V2000
   21.3200   -1.7070   18.7490 C   0  0  0  0  0
   20.7960   -2.9760   18.1710 C   0  0  0  0  0
   19.5290   -3.0470   17.7080 C   0  0  0  0  0
   18.6490   -1.8460   17.7750 C   0  0  0  0  0
   19.1220   -0.6880   18.3010 C   0  0  0  0  0
   20.5180   -0.6130   18.8110 C   0  0  0  0  0
   22.3574   -1.6691   19.1220 H   0  0  0  0  0
   21.4582   -3.8573   18.1268 H   0  0  0  0  0
   19.1345   -3.9837   17.2791 H   0  0  0  0  0
   17.6157   -1.9117   17.3942 H   0  0  0  0  0
   18.4798    0.2073   18.3563 H   0  0  0  0  0
   20.8888    0.3351   19.2360 H   0  0  0  0  0
  1  2  1  0  0  0
  1  6  1  0  0  0
  1  7  1  0  0  0
  2  3  1  0  0  0
  2  8  1  0  0  0
  3  4  1  0  0  0
  3  9  1  0  0  0
  4  5  1  0  0  0
  4 10  1  0  0  0
  5  6  1  0  0  0
  5 11  1  0  0  0
  6 12  1  0  0  0
M  END
$$$$
