@<TRIPOS>MOLECULE
BNZ_1_A_602
 12 12 0 0 0
SMALL
NO_CHARGES

@<TRIPOS>ATOM
      1 C1         21.3200   -1.7070   18.7490 C.ar   602  BNZ602      0.0000
      2 C2         20.7960   -2.9760   18.1710 C.ar   602  BNZ602      0.0000
      3 C3         19.5290   -3.0470   17.7080 C.ar   602  BNZ602      0.0000
      4 C4         18.6490   -1.8460   17.7750 C.ar   602  BNZ602      0.0000
      5 C5         19.1220   -0.6880   18.3010 C.ar   602  BNZ602      0.0000
      6 C6         20.5180   -0.6130   18.8110 C.ar   602  BNZ602      0.0000
      7 H          22.3574   -1.6691   19.1220 H      602  BNZ602      0.0000
      8 H          21.4582   -3.8573   18.1268 H      602  BNZ602      0.0000
      9 H          19.1345   -3.9837   17.2791 H      602  BNZ602      0.0000
     10 H          17.6157   -1.9117   17.3942 H      602  BNZ602      0.0000
     11 H          18.4798    0.2073   18.3563 H      602  BNZ602      0.0000
     12 H          20.8888    0.3351   19.2360 H      602  BNZ602      0.0000
@<TRIPOS>BOND
     1     1     2   ar
     2     1     6   ar
     3     1     7    1
     4     2     3   ar
     5     2     8    1
     6     3     4   ar
     7     3     9    1
     8     4     5   ar
     9     4    10    1
    10     5     6   ar
    11     5    11    1
    12     6    12    1

