@<TRIPOS>MOLECULE
I12_1_A_1145
 92 93 0 0 0
SMALL
NO_CHARGES

@<TRIPOS>ATOM
      1 N1        100.6190    7.1790   -3.5750 N.ar  1145  I121145      0.0000
      2 C1         99.4160    7.0450   -3.1050 C.ar  1145  I121145      0.0000
      3 C2         98.6220    6.3770   -4.0940 C.ar  1145  I121145      0.0000
      4 C3         99.4380    6.1410   -5.1650 C.ar  1145  I121145      0.0000
      5 C4         99.0490    5.4660   -6.4420 C.3   1145  I121145      0.0000
      6 O1        100.6860    6.6090   -4.9150 O.3   1145  I121145      0.0000
      7 C5         98.8890    7.4850   -1.7900 C.2   1145  I121145      0.0000
      8 O2         97.7210    7.3630   -1.4590 O.2   1145  I121145      0.0000
      9 N2         99.7320    8.0170   -0.9550 N.am  1145  I121145      0.0000
     10 C6         99.6080    8.5040    0.4450 C.3   1145  I121145      0.0000
     11 C7         98.6080    9.6520    0.5550 C.2   1145  I121145      0.0000
     12 O3         98.5910   10.5540   -0.2890 O.2   1145  I121145      0.0000
     13 C8        100.9680    8.9660    0.9830 C.3   1145  I121145      0.0000
     14 N3         97.7840    9.6140    1.6030 N.am  1145  I121145      0.0000
     15 C9         96.8140   10.6630    1.8760 C.3   1145  I121145      0.0000
     16 C10        95.3850   10.1690    1.6530 C.3   1145  I121145      0.0000
     17 C11        94.4090   11.1860    2.1830 C.3   1145  I121145      0.0000
     18 C12        95.1380    9.9330    0.1630 C.3   1145  I121145      0.0000
     19 C13        96.9500   11.0710    3.3400 C.2   1145  I121145      0.0000
     20 O4         96.8440   10.2290    4.2300 O.2   1145  I121145      0.0000
     21 N4         97.1870   12.3520    3.5940 N.am  1145  I121145      0.0000
     22 C14        97.3050   12.8150    4.9660 C.3   1145  I121145      0.0000
     23 C15        97.8800   14.2330    4.9960 C.3   1145  I121145      0.0000
     24 C16        99.2590   14.3830    4.3520 C.3   1145  I121145      0.0000
     25 C17       100.2390   13.4580    5.0600 C.3   1145  I121145      0.0000
     26 C18        99.7280   15.8300    4.4410 C.3   1145  I121145      0.0000
     27 C19        95.9070   12.7900    5.5850 C.2   1145  I121145      0.0000
     28 O5         94.9360   13.0840    4.8570 O.2   1145  I121145      0.0000
     29 N5         95.7420   12.3320    6.6350 N.am  1145  I121145      0.0000
     30 C20        94.4580   12.0050    7.3320 C.2   1145  I121145      0.0000
     31 C21        94.3440   13.0220    8.4960 C.3   1145  I121145      0.0000
     32 C22        94.1690   14.4730    7.9940 C.3   1145  I121145      0.0000
     33 C23        93.1650   15.2910    8.7960 C.2   1145  I121145      0.0000
     34 O6         92.5360   14.8760    9.7420 O.2   1145  I121145      0.0000
     35 O7         93.0280   16.5350    8.2640 O.3   1145  I121145      0.0000
     36 C24        92.0260   17.3610    8.8290 C.3   1145  I121145      0.0000
     37 C25        91.8790   18.6100    7.9660 C.3   1145  I121145      0.0000
     38 C26        93.9840   10.5810    7.7070 C.3   1145  I121145      0.0000
     39 C27        93.4270    9.8150    6.5370 C.3   1145  I121145      0.0000
     40 C28        92.0100   10.1560    6.1690 C.3   1145  I121145      0.0000
     41 C29        91.6290    8.8880    5.4060 C.3   1145  I121145      0.0000
     42 N6         92.1750    7.9070    6.3340 N.am  1145  I121145      0.0000
     43 C30        93.2140    8.4000    7.0200 C.2   1145  I121145      0.0000
     44 O8         93.8400    7.7830    7.8470 O.2   1145  I121145      0.0000
     45 H          97.5624    6.1135   -4.0006 H     1145  I121145      0.0000
     46 H          99.9069    5.4072   -7.1475 H     1145  I121145      0.0000
     47 H          98.2298    6.0187   -6.9526 H     1145  I121145      0.0000
     48 H          98.6954    4.4283   -6.2537 H     1145  I121145      0.0000
     49 H         100.6842    8.1205   -1.3320 H     1145  I121145      0.0000
     50 H          99.2584    7.6564    1.0823 H     1145  I121145      0.0000
     51 H         100.8895    9.3161    2.0369 H     1145  I121145      0.0000
     52 H         101.3853    9.8070    0.3849 H     1145  I121145      0.0000
     53 H         101.7147    8.1404    0.9671 H     1145  I121145      0.0000
     54 H          97.8211    8.8332    2.2733 H     1145  I121145      0.0000
     55 H          96.9946   11.5556    1.2330 H     1145  I121145      0.0000
     56 H          95.2300    9.2051    2.1966 H     1145  I121145      0.0000
     57 H          93.3636   10.9303    1.8989 H     1145  I121145      0.0000
     58 H          94.6051   12.2100    1.7937 H     1145  I121145      0.0000
     59 H          94.4113   11.2369    3.2923 H     1145  I121145      0.0000
     60 H          94.1002    9.5792   -0.0285 H     1145  I121145      0.0000
     61 H          95.8183    9.1570   -0.2520 H     1145  I121145      0.0000
     62 H          95.2851   10.8582   -0.4378 H     1145  I121145      0.0000
     63 H          97.2537   13.0247    2.8197 H     1145  I121145      0.0000
     64 H          97.9715   12.1373    5.5487 H     1145  I121145      0.0000
     65 H          97.9279   14.5749    6.0564 H     1145  I121145      0.0000
     66 H          97.1664   14.9219    4.4860 H     1145  I121145      0.0000
     67 H          99.2079   14.0988    3.2738 H     1145  I121145      0.0000
     68 H         101.2792   13.6206    4.6988 H     1145  I121145      0.0000
     69 H         100.0189   12.3832    4.8792 H     1145  I121145      0.0000
     70 H         100.2520   13.6187    6.1612 H     1145  I121145      0.0000
     71 H         100.7252   15.9683    3.9662 H     1145  I121145      0.0000
     72 H          99.8153   16.1774    5.4948 H     1145  I121145      0.0000
     73 H          99.0268   16.5220    3.9229 H     1145  I121145      0.0000
     74 H          96.5246   12.0354    7.2327 H     1145  I121145      0.0000
     75 H          93.7527   12.3412    6.5431 H     1145  I121145      0.0000
     76 H          95.2204   12.9411    9.1784 H     1145  I121145      0.0000
     77 H          93.4542   12.7444    9.1044 H     1145  I121145      0.0000
     78 H          93.8166   14.4771    6.9392 H     1145  I121145      0.0000
     79 H          95.1561   14.9868    7.9880 H     1145  I121145      0.0000
     80 H          92.2975   17.6571    9.8648 H     1145  I121145      0.0000
     81 H          91.0476   16.8362    8.8739 H     1145  I121145      0.0000
     82 H          91.1018   19.2943    8.3708 H     1145  I121145      0.0000
     83 H          91.5847   18.3556    6.9244 H     1145  I121145      0.0000
     84 H          92.8292   19.1848    7.9127 H     1145  I121145      0.0000
     85 H          93.2218   10.6306    8.5177 H     1145  I121145      0.0000
     86 H          94.8652   10.0520    8.1381 H     1145  I121145      0.0000
     87 H          94.1166    9.8259    5.6614 H     1145  I121145      0.0000
     88 H          91.9404   11.0618    5.5264 H     1145  I121145      0.0000
     89 H          91.3605   10.3027    7.0626 H     1145  I121145      0.0000
     90 H          92.1089    8.8380    4.4023 H     1145  I121145      0.0000
     91 H          90.5261    8.8020    5.2852 H     1145  I121145      0.0000
     92 H          91.8291    6.9477    6.4630 H     1145  I121145      0.0000
@<TRIPOS>BOND
     1     1     2   ar
     2     1     6   ar
     3     2     3   ar
     4     2     7    1
     5     3     4   ar
     6     3    45    1
     7     4     5    1
     8     4     6   ar
     9     5    46    1
    10     5    47    1
    11     5    48    1
    12     7     8    2
    13     7     9    1
    14     9    10    1
    15     9    49    1
    16    10    11    1
    17    10    13    1
    18    10    50    1
    19    11    12    2
    20    11    14    1
    21    13    51    1
    22    13    52    1
    23    13    53    1
    24    14    15    1
    25    14    54    1
    26    15    16    1
    27    15    19    1
    28    15    55    1
    29    16    17    1
    30    16    18    1
    31    16    56    1
    32    17    57    1
    33    17    58    1
    34    17    59    1
    35    18    60    1
    36    18    61    1
    37    18    62    1
    38    19    20    2
    39    19    21    1
    40    21    22    1
    41    21    63    1
    42    22    23    1
    43    22    27    1
    44    22    64    1
    45    23    24    1
    46    23    65    1
    47    23    66    1
    48    24    25    1
    49    24    26    1
    50    24    67    1
    51    25    68    1
    52    25    69    1
    53    25    70    1
    54    26    71    1
    55    26    72    1
    56    26    73    1
    57    27    28    2
    58    27    29    1
    59    29    30    1
    60    29    74    1
    61    30    31    1
    62    30    38    1
    63    30    75    1
    64    31    32    1
    65    31    76    1
    66    31    77    1
    67    32    33    1
    68    32    78    1
    69    32    79    1
    70    33    34    2
    71    33    35    1
    72    35    36    1
    73    36    37    1
    74    36    80    1
    75    36    81    1
    76    37    82    1
    77    37    83    1
    78    37    84    1
    79    38    39    1
    80    38    85    1
    81    38    86    1
    82    39    40    1
    83    39    43    1
    84    39    87    1
    85    40    41    1
    86    40    88    1
    87    40    89    1
    88    41    42    1
    89    41    90    1
    90    41    91    1
    91    42    43    1
    92    42    92    1
    93    43    44    2

