I12_1_A_1145
  -ISIS-            3D

 92 93  0  0  0  0  0  0  0  0  1 V2000
  100.6190    7.1790   -3.5750 N   0  0  0  0  0
   99.4160    7.0450   -3.1050 C   0  0  0  0  0
   98.6220    6.3770   -4.0940 C   0  0  0  0  0
   99.4380    6.1410   -5.1650 C   0  0  0  0  0
   99.0490    5.4660   -6.4420 C   0  0  0  0  0
  100.6860    6.6090   -4.9150 O   0  0  0  0  0
   98.8890    7.4850   -1.7900 C   0  0  0  0  0
   97.7210    7.3630   -1.4590 O   0  0  0  0  0
   99.7320    8.0170   -0.9550 N   0  0  0  0  0
   99.6080    8.5040    0.4450 C   0  0  0  0  0
   98.6080    9.6520    0.5550 C   0  0  0  0  0
   98.5910   10.5540   -0.2890 O   0  0  0  0  0
  100.9680    8.9660    0.9830 C   0  0  0  0  0
   97.7840    9.6140    1.6030 N   0  0  0  0  0
   96.8140   10.6630    1.8760 C   0  0  0  0  0
   95.3850   10.1690    1.6530 C   0  0  0  0  0
   94.4090   11.1860    2.1830 C   0  0  0  0  0
   95.1380    9.9330    0.1630 C   0  0  0  0  0
   96.9500   11.0710    3.3400 C   0  0  0  0  0
   96.8440   10.2290    4.2300 O   0  0  0  0  0
   97.1870   12.3520    3.5940 N   0  0  0  0  0
   97.3050   12.8150    4.9660 C   0  0  0  0  0
   97.8800   14.2330    4.9960 C   0  0  0  0  0
   99.2590   14.3830    4.3520 C   0  0  0  0  0
  100.2390   13.4580    5.0600 C   0  0  0  0  0
   99.7280   15.8300    4.4410 C   0  0  0  0  0
   95.9070   12.7900    5.5850 C   0  0  0  0  0
   94.9360   13.0840    4.8570 O   0  0  0  0  0
   95.7420   12.3320    6.6350 N   0  0  0  0  0
   94.4580   12.0050    7.3320 C   0  0  0  0  0
   94.3440   13.0220    8.4960 C   0  0  0  0  0
   94.1690   14.4730    7.9940 C   0  0  0  0  0
   93.1650   15.2910    8.7960 C   0  0  0  0  0
   92.5360   14.8760    9.7420 O   0  0  0  0  0
   93.0280   16.5350    8.2640 O   0  0  0  0  0
   92.0260   17.3610    8.8290 C   0  0  0  0  0
   91.8790   18.6100    7.9660 C   0  0  0  0  0
   93.9840   10.5810    7.7070 C   0  0  0  0  0
   93.4270    9.8150    6.5370 C   0  0  0  0  0
   92.0100   10.1560    6.1690 C   0  0  0  0  0
   91.6290    8.8880    5.4060 C   0  0  0  0  0
   92.1750    7.9070    6.3340 N   0  0  0  0  0
   93.2140    8.4000    7.0200 C   0  0  0  0  0
   93.8400    7.7830    7.8470 O   0  0  0  0  0
   97.5624    6.1135   -4.0006 H   0  0  0  0  0
   99.9069    5.4072   -7.1475 H   0  0  0  0  0
   98.2298    6.0187   -6.9526 H   0  0  0  0  0
   98.6954    4.4283   -6.2537 H   0  0  0  0  0
  100.6842    8.1205   -1.3320 H   0  0  0  0  0
   99.2584    7.6564    1.0823 H   0  0  0  0  0
  100.8895    9.3161    2.0369 H   0  0  0  0  0
  101.3853    9.8070    0.3849 H   0  0  0  0  0
  101.7147    8.1404    0.9671 H   0  0  0  0  0
   97.8211    8.8332    2.2733 H   0  0  0  0  0
   96.9946   11.5556    1.2330 H   0  0  0  0  0
   95.2300    9.2051    2.1966 H   0  0  0  0  0
   93.3636   10.9303    1.8989 H   0  0  0  0  0
   94.6051   12.2100    1.7937 H   0  0  0  0  0
   94.4113   11.2369    3.2923 H   0  0  0  0  0
   94.1002    9.5792   -0.0285 H   0  0  0  0  0
   95.8183    9.1570   -0.2520 H   0  0  0  0  0
   95.2851   10.8582   -0.4378 H   0  0  0  0  0
   97.2537   13.0247    2.8197 H   0  0  0  0  0
   97.9715   12.1373    5.5487 H   0  0  0  0  0
   97.9279   14.5749    6.0564 H   0  0  0  0  0
   97.1664   14.9219    4.4860 H   0  0  0  0  0
   99.2079   14.0988    3.2738 H   0  0  0  0  0
  101.2792   13.6206    4.6988 H   0  0  0  0  0
  100.0189   12.3832    4.8792 H   0  0  0  0  0
  100.2520   13.6187    6.1612 H   0  0  0  0  0
  100.7252   15.9683    3.9662 H   0  0  0  0  0
   99.8153   16.1774    5.4948 H   0  0  0  0  0
   99.0268   16.5220    3.9229 H   0  0  0  0  0
   96.5246   12.0354    7.2327 H   0  0  0  0  0
   93.7527   12.3412    6.5431 H   0  0  0  0  0
   95.2204   12.9411    9.1784 H   0  0  0  0  0
   93.4542   12.7444    9.1044 H   0  0  0  0  0
   93.8166   14.4771    6.9392 H   0  0  0  0  0
   95.1561   14.9868    7.9880 H   0  0  0  0  0
   92.2975   17.6571    9.8648 H   0  0  0  0  0
   91.0476   16.8362    8.8739 H   0  0  0  0  0
   91.1018   19.2943    8.3708 H   0  0  0  0  0
   91.5847   18.3556    6.9244 H   0  0  0  0  0
   92.8292   19.1848    7.9127 H   0  0  0  0  0
   93.2218   10.6306    8.5177 H   0  0  0  0  0
   94.8652   10.0520    8.1381 H   0  0  0  0  0
   94.1166    9.8259    5.6614 H   0  0  0  0  0
   91.9404   11.0618    5.5264 H   0  0  0  0  0
   91.3605   10.3027    7.0626 H   0  0  0  0  0
   92.1089    8.8380    4.4023 H   0  0  0  0  0
   90.5261    8.8020    5.2852 H   0  0  0  0  0
   91.8291    6.9477    6.4630 H   0  0  0  0  0
  1  2  2  0  0  0
  1  6  1  0  0  0
  2  3  1  0  0  0
  2  7  1  0  0  0
  3  4  2  0  0  0
  3 45  1  0  0  0
  4  5  1  0  0  0
  4  6  1  0  0  0
  5 46  1  0  0  0
  5 47  1  0  0  0
  5 48  1  0  0  0
  7  8  2  0  0  0
  7  9  1  0  0  0
  9 10  1  0  0  0
  9 49  1  0  0  0
 10 11  1  0  0  0
 10 13  1  0  0  0
 10 50  1  0  0  0
 11 12  2  0  0  0
 11 14  1  0  0  0
 13 51  1  0  0  0
 13 52  1  0  0  0
 13 53  1  0  0  0
 14 15  1  0  0  0
 14 54  1  0  0  0
 15 16  1  0  0  0
 15 19  1  0  0  0
 15 55  1  0  0  0
 16 17  1  0  0  0
 16 18  1  0  0  0
 16 56  1  0  0  0
 17 57  1  0  0  0
 17 58  1  0  0  0
 17 59  1  0  0  0
 18 60  1  0  0  0
 18 61  1  0  0  0
 18 62  1  0  0  0
 19 20  2  0  0  0
 19 21  1  0  0  0
 21 22  1  0  0  0
 21 63  1  0  0  0
 22 23  1  0  0  0
 22 27  1  0  0  0
 22 64  1  0  0  0
 23 24  1  0  0  0
 23 65  1  0  0  0
 23 66  1  0  0  0
 24 25  1  0  0  0
 24 26  1  0  0  0
 24 67  1  0  0  0
 25 68  1  0  0  0
 25 69  1  0  0  0
 25 70  1  0  0  0
 26 71  1  0  0  0
 26 72  1  0  0  0
 26 73  1  0  0  0
 27 28  2  0  0  0
 27 29  1  0  0  0
 29 30  1  0  0  0
 29 74  1  0  0  0
 30 31  1  0  0  0
 30 38  1  0  0  0
 30 75  1  0  0  0
 31 32  1  0  0  0
 31 76  1  0  0  0
 31 77  1  0  0  0
 32 33  1  0  0  0
 32 78  1  0  0  0
 32 79  1  0  0  0
 33 34  2  0  0  0
 33 35  1  0  0  0
 35 36  1  0  0  0
 36 37  1  0  0  0
 36 80  1  0  0  0
 36 81  1  0  0  0
 37 82  1  0  0  0
 37 83  1  0  0  0
 37 84  1  0  0  0
 38 39  1  0  0  0
 38 85  1  0  0  0
 38 86  1  0  0  0
 39 40  1  0  0  0
 39 43  1  0  0  0
 39 87  1  0  0  0
 40 41  1  0  0  0
 40 88  1  0  0  0
 40 89  1  0  0  0
 41 42  1  0  0  0
 41 90  1  0  0  0
 41 91  1  0  0  0
 42 43  1  0  0  0
 42 92  1  0  0  0
 43 44  2  0  0  0
M  END
$$$$
