@<TRIPOS>MOLECULE
CY6_1_A_1145
 88 89 0 0 0
SMALL
NO_CHARGES

@<TRIPOS>ATOM
      1 C5         73.3760   47.7140   18.4330 C.3   1145  CY61145      0.0000
      2 C6         72.8930   46.2990   18.6050 C.ar  1145  CY61145      0.0000
      3 O7         71.9590   45.8240   17.7670 O.3   1145  CY61145      0.0000
      4 N8         71.7080   44.4820   18.1770 N.ar  1145  CY61145      0.0000
      5 C9         72.4860   44.2900   19.1810 C.ar  1145  CY61145      0.0000
      6 C10        73.3040   45.4570   19.5210 C.ar  1145  CY61145      0.0000
      7 C11        72.5940   43.0470   19.9540 C.2   1145  CY61145      0.0000
      8 O12        73.0910   42.0800   19.3140 O.2   1145  CY61145      0.0000
      9 N13        72.2270   42.9390   21.2720 N.am  1145  CY61145      0.0000
     10 C14        72.3260   41.7740   22.1820 C.3   1145  CY61145      0.0000
     11 C15        72.1330   42.1430   23.7530 C.3   1145  CY61145      0.0000
     12 C16        72.2900   40.9620   24.7780 C.3   1145  CY61145      0.0000
     13 C17        70.7360   42.8150   24.0190 C.3   1145  CY61145      0.0000
     14 C18        71.3590   40.6490   21.7020 C.2   1145  CY61145      0.0000
     15 O19        70.1250   40.8390   21.5470 O.2   1145  CY61145      0.0000
     16 C20        72.0130   39.2830   21.4870 C.3   1145  CY61145      0.0000
     17 C21        71.1410   38.0200   21.0920 C.3   1145  CY61145      0.0000
     18 C22        72.1390   36.8100   20.9160 C.3   1145  CY61145      0.0000
     19 C23        73.0630   37.0400   19.7340 C.3   1145  CY61145      0.0000
     20 C24        74.1020   36.0980   19.3790 C.3   1145  CY61145      0.0000
     21 C25        74.6740   36.1150   18.0000 C.3   1145  CY61145      0.0000
     22 C26        74.6400   35.1100   20.3920 C.3   1145  CY61145      0.0000
     23 C29        70.2140   37.7990   22.3190 C.2   1145  CY61145      0.0000
     24 O30        70.7080   38.0510   23.4970 O.3   1145  CY61145      0.0000
     25 N31        68.9190   37.3770   22.1920 N.pl3 1145  CY61145      0.0000
     26 C32        68.1000   37.2110   23.3980 C.3   1145  CY61145      0.0000
     27 C33        67.5730   35.8690   23.8530 C.3   1145  CY61145      0.0000
     28 C34        68.8440   35.0260   24.2700 C.3   1145  CY61145      0.0000
     29 C35        68.5470   33.6490   24.9040 C.2   1145  CY61145      0.0000
     30 O36        67.3640   33.2810   25.0880 O.2   1145  CY61145      0.0000
     31 O37        69.5250   32.7600   25.3300 O.3   1145  CY61145      0.0000
     32 C38        70.3680   33.0850   26.4740 C.3   1145  CY61145      0.0000
     33 C39        69.8230   32.5050   27.8090 C.3   1145  CY61145      0.0000
     34 C40        66.8980   38.2280   23.3800 C.3   1145  CY61145      0.0000
     35 C41        66.9220   39.3590   24.4470 C.3   1145  CY61145      0.0000
     36 C42        67.1800   39.0330   25.9450 C.3   1145  CY61145      0.0000
     37 C43        66.7700   40.3700   26.6240 C.3   1145  CY61145      0.0000
     38 N44        65.6080   40.7100   25.7960 N.am  1145  CY61145      0.0000
     39 C45        65.6540   40.1510   24.5640 C.2   1145  CY61145      0.0000
     40 O46        64.8130   40.2570   23.6380 O.2   1145  CY61145      0.0000
     41 H          74.1466   47.9816   19.1893 H     1145  CY61145      0.0000
     42 H          72.5368   48.4367   18.5384 H     1145  CY61145      0.0000
     43 H          73.8275   47.8611   17.4269 H     1145  CY61145      0.0000
     44 H          74.0442   45.5667   20.3198 H     1145  CY61145      0.0000
     45 H          71.8253   43.7957   21.6737 H     1145  CY61145      0.0000
     46 H          73.3629   41.3669   22.0980 H     1145  CY61145      0.0000
     47 H          72.9206   42.8978   23.9995 H     1145  CY61145      0.0000
     48 H          72.3526   41.3402   25.8229 H     1145  CY61145      0.0000
     49 H          73.2168   40.3786   24.5820 H     1145  CY61145      0.0000
     50 H          71.4314   40.2626   24.7360 H     1145  CY61145      0.0000
     51 H          70.6413   43.1356   25.0806 H     1145  CY61145      0.0000
     52 H          69.8953   42.1169   23.8131 H     1145  CY61145      0.0000
     53 H          70.5781   43.7220   23.3968 H     1145  CY61145      0.0000
     54 H          72.6376   39.0397   22.3764 H     1145  CY61145      0.0000
     55 H          72.7349   39.4672   20.6627 H     1145  CY61145      0.0000
     56 H          70.5523   38.2022   20.1658 H     1145  CY61145      0.0000
     57 H          71.5593   35.8727   20.7465 H     1145  CY61145      0.0000
     58 H          72.7338   36.6685   21.8475 H     1145  CY61145      0.0000
     59 H          73.6190   37.9862   19.9110 H     1145  CY61145      0.0000
     60 H          72.4255   37.2562   18.8421 H     1145  CY61145      0.0000
     61 H          73.3189   35.3361   19.0553 H     1145  CY61145      0.0000
     62 H          75.0644   35.1230   17.6769 H     1145  CY61145      0.0000
     63 H          75.5320   36.8220   17.9472 H     1145  CY61145      0.0000
     64 H          73.9460   36.4454   17.2242 H     1145  CY61145      0.0000
     65 H          75.1489   34.2423   19.9142 H     1145  CY61145      0.0000
     66 H          73.8619   34.6918   21.0696 H     1145  CY61145      0.0000
     67 H          75.3988   35.6003   21.0421 H     1145  CY61145      0.0000
     68 H          70.3394   36.6890   22.3825 H     1145  CY61145      0.0000
     69 H          70.3215   38.8733   23.7686 H     1145  CY61145      0.0000
     70 H          68.5761   37.2212   21.2319 H     1145  CY61145      0.0000
     71 H          68.6966   37.5560   24.2737 H     1145  CY61145      0.0000
     72 H          67.0139   35.3602   23.0356 H     1145  CY61145      0.0000
     73 H          66.8976   35.9726   24.7331 H     1145  CY61145      0.0000
     74 H          69.4592   35.6066   24.9921 H     1145  CY61145      0.0000
     75 H          69.4825   34.8522   23.3761 H     1145  CY61145      0.0000
     76 H          70.4865   34.1837   26.5776 H     1145  CY61145      0.0000
     77 H          71.3860   32.6782   26.2968 H     1145  CY61145      0.0000
     78 H          70.4949   32.7481   28.6607 H     1145  CY61145      0.0000
     79 H          69.7301   31.3984   27.7600 H     1145  CY61145      0.0000
     80 H          68.8181   32.9161   28.0474 H     1145  CY61145      0.0000
     81 H          65.9427   37.6663   23.4948 H     1145  CY61145      0.0000
     82 H          66.8366   38.6969   22.3705 H     1145  CY61145      0.0000
     83 H          67.7209   40.0748   24.1272 H     1145  CY61145      0.0000
     84 H          68.2413   38.7749   26.1556 H     1145  CY61145      0.0000
     85 H          66.5293   38.1942   26.2831 H     1145  CY61145      0.0000
     86 H          67.5768   41.1336   26.5483 H     1145  CY61145      0.0000
     87 H          66.5100   40.2173   27.6950 H     1145  CY61145      0.0000
     88 H          64.8271   41.3090   26.0927 H     1145  CY61145      0.0000
@<TRIPOS>BOND
     1     1     2    1
     2     1    41    1
     3     1    42    1
     4     1    43    1
     5     2     3   ar
     6     2     6   ar
     7     3     4   ar
     8     4     5   ar
     9     5     6   ar
    10     5     7    1
    11     6    44    1
    12     7     8    2
    13     7     9    1
    14     9    10    1
    15     9    45    1
    16    10    11    1
    17    10    14    1
    18    10    46    1
    19    11    12    1
    20    11    13    1
    21    11    47    1
    22    12    48    1
    23    12    49    1
    24    12    50    1
    25    13    51    1
    26    13    52    1
    27    13    53    1
    28    14    15    2
    29    14    16    1
    30    16    17    1
    31    16    54    1
    32    16    55    1
    33    17    18    1
    34    17    23    1
    35    17    56    1
    36    18    19    1
    37    18    57    1
    38    18    58    1
    39    19    20    1
    40    19    59    1
    41    19    60    1
    42    20    21    1
    43    20    22    1
    44    20    61    1
    45    21    62    1
    46    21    63    1
    47    21    64    1
    48    22    65    1
    49    22    66    1
    50    22    67    1
    51    23    24    1
    52    23    25    1
    53    23    68    1
    54    24    69    1
    55    25    26    1
    56    25    70    1
    57    26    27    1
    58    26    34    1
    59    26    71    1
    60    27    28    1
    61    27    72    1
    62    27    73    1
    63    28    29    1
    64    28    74    1
    65    28    75    1
    66    29    30    2
    67    29    31    1
    68    31    32    1
    69    32    33    1
    70    32    76    1
    71    32    77    1
    72    33    78    1
    73    33    79    1
    74    33    80    1
    75    34    35    1
    76    34    81    1
    77    34    82    1
    78    35    36    1
    79    35    39    1
    80    35    83    1
    81    36    37    1
    82    36    84    1
    83    36    85    1
    84    37    38    1
    85    37    86    1
    86    37    87    1
    87    38    39    1
    88    38    88    1
    89    39    40    2

