@<TRIPOS>MOLECULE
CY6_2_A_1145
 88 89 0 0 0
SMALL
NO_CHARGES

@<TRIPOS>ATOM
      1 C5         20.3600   47.7140   33.5740 C.3   1145  CY61145      0.0000
      2 C6         20.8430   46.2990   33.4020 C.ar  1145  CY61145      0.0000
      3 O7         21.7770   45.8240   34.2400 O.3   1145  CY61145      0.0000
      4 N8         22.0280   44.4820   33.8300 N.ar  1145  CY61145      0.0000
      5 C9         21.2500   44.2900   32.8260 C.ar  1145  CY61145      0.0000
      6 C10        20.4320   45.4570   32.4860 C.ar  1145  CY61145      0.0000
      7 C11        21.1420   43.0470   32.0530 C.2   1145  CY61145      0.0000
      8 O12        20.6450   42.0800   32.6930 O.2   1145  CY61145      0.0000
      9 N13        21.5090   42.9390   30.7350 N.am  1145  CY61145      0.0000
     10 C14        21.4100   41.7740   29.8250 C.3   1145  CY61145      0.0000
     11 C15        21.6030   42.1430   28.2540 C.3   1145  CY61145      0.0000
     12 C16        21.4460   40.9620   27.2290 C.3   1145  CY61145      0.0000
     13 C17        23.0000   42.8150   27.9880 C.3   1145  CY61145      0.0000
     14 C18        22.3770   40.6490   30.3050 C.2   1145  CY61145      0.0000
     15 O19        23.6110   40.8390   30.4600 O.2   1145  CY61145      0.0000
     16 C20        21.7230   39.2830   30.5200 C.3   1145  CY61145      0.0000
     17 C21        22.5950   38.0200   30.9150 C.3   1145  CY61145      0.0000
     18 C22        21.5970   36.8100   31.0910 C.3   1145  CY61145      0.0000
     19 C23        20.6730   37.0400   32.2730 C.3   1145  CY61145      0.0000
     20 C24        19.6340   36.0980   32.6280 C.3   1145  CY61145      0.0000
     21 C25        19.0620   36.1150   34.0070 C.3   1145  CY61145      0.0000
     22 C26        19.0960   35.1100   31.6150 C.3   1145  CY61145      0.0000
     23 C29        23.5220   37.7990   29.6880 C.2   1145  CY61145      0.0000
     24 O30        23.0280   38.0510   28.5100 O.3   1145  CY61145      0.0000
     25 N31        24.8170   37.3770   29.8150 N.pl3 1145  CY61145      0.0000
     26 C32        25.6360   37.2110   28.6090 C.3   1145  CY61145      0.0000
     27 C33        26.1630   35.8690   28.1540 C.3   1145  CY61145      0.0000
     28 C34        24.8920   35.0260   27.7370 C.3   1145  CY61145      0.0000
     29 C35        25.1890   33.6490   27.1030 C.2   1145  CY61145      0.0000
     30 O36        26.3720   33.2810   26.9190 O.2   1145  CY61145      0.0000
     31 O37        24.2110   32.7600   26.6770 O.3   1145  CY61145      0.0000
     32 C38        23.3680   33.0850   25.5330 C.3   1145  CY61145      0.0000
     33 C39        23.9130   32.5050   24.1980 C.3   1145  CY61145      0.0000
     34 C40        26.8380   38.2280   28.6270 C.3   1145  CY61145      0.0000
     35 C41        26.8140   39.3590   27.5600 C.3   1145  CY61145      0.0000
     36 C42        26.5560   39.0330   26.0620 C.3   1145  CY61145      0.0000
     37 C43        26.9660   40.3700   25.3830 C.3   1145  CY61145      0.0000
     38 N44        28.1280   40.7100   26.2110 N.am  1145  CY61145      0.0000
     39 C45        28.0820   40.1510   27.4430 C.2   1145  CY61145      0.0000
     40 O46        28.9230   40.2570   28.3690 O.2   1145  CY61145      0.0000
     41 H          19.5894   47.9816   32.8177 H     1145  CY61145      0.0000
     42 H          21.1992   48.4367   33.4686 H     1145  CY61145      0.0000
     43 H          19.9085   47.8611   34.5801 H     1145  CY61145      0.0000
     44 H          19.6919   45.5667   31.6872 H     1145  CY61145      0.0000
     45 H          21.9107   43.7956   30.3333 H     1145  CY61145      0.0000
     46 H          20.3731   41.3669   29.9090 H     1145  CY61145      0.0000
     47 H          20.8154   42.8978   28.0074 H     1145  CY61145      0.0000
     48 H          21.3826   41.3402   26.1841 H     1145  CY61145      0.0000
     49 H          20.5196   40.3780   27.4255 H     1145  CY61145      0.0000
     50 H          22.3050   40.2630   27.2705 H     1145  CY61145      0.0000
     51 H          23.0955   43.1339   26.9259 H     1145  CY61145      0.0000
     52 H          23.8408   42.1176   28.1957 H     1145  CY61145      0.0000
     53 H          23.1570   43.7231   28.6088 H     1145  CY61145      0.0000
     54 H          21.0983   39.0397   29.6306 H     1145  CY61145      0.0000
     55 H          21.0011   39.4672   31.3444 H     1145  CY61145      0.0000
     56 H          23.1837   38.2022   31.8412 H     1145  CY61145      0.0000
     57 H          22.1767   35.8727   31.2605 H     1145  CY61145      0.0000
     58 H          21.0022   36.6685   30.1595 H     1145  CY61145      0.0000
     59 H          20.1170   37.9862   32.0959 H     1145  CY61145      0.0000
     60 H          21.3105   37.2562   33.1648 H     1145  CY61145      0.0000
     61 H          20.4172   35.3361   32.9516 H     1145  CY61145      0.0000
     62 H          18.6715   35.1230   34.3300 H     1145  CY61145      0.0000
     63 H          18.2041   36.8221   34.0599 H     1145  CY61145      0.0000
     64 H          19.7900   36.4453   34.7828 H     1145  CY61145      0.0000
     65 H          18.5890   34.2412   32.0929 H     1145  CY61145      0.0000
     66 H          19.8738   34.6935   30.9361 H     1145  CY61145      0.0000
     67 H          18.3356   35.5997   30.9663 H     1145  CY61145      0.0000
     68 H          23.3966   36.6890   29.6245 H     1145  CY61145      0.0000
     69 H          23.4145   38.8733   28.2384 H     1145  CY61145      0.0000
     70 H          25.1599   37.2212   30.7750 H     1145  CY61145      0.0000
     71 H          25.0394   37.5560   27.7333 H     1145  CY61145      0.0000
     72 H          26.7221   35.3602   28.9714 H     1145  CY61145      0.0000
     73 H          26.8384   35.9726   27.2739 H     1145  CY61145      0.0000
     74 H          24.2768   35.6066   27.0149 H     1145  CY61145      0.0000
     75 H          24.2535   34.8522   28.6309 H     1145  CY61145      0.0000
     76 H          23.2495   34.1837   25.4294 H     1145  CY61145      0.0000
     77 H          22.3500   32.6782   25.7102 H     1145  CY61145      0.0000
     78 H          23.2411   32.7480   23.3463 H     1145  CY61145      0.0000
     79 H          24.0060   31.3984   24.2470 H     1145  CY61145      0.0000
     80 H          24.9178   32.9162   23.9596 H     1145  CY61145      0.0000
     81 H          27.7933   37.6663   28.5122 H     1145  CY61145      0.0000
     82 H          26.8994   38.6969   29.6365 H     1145  CY61145      0.0000
     83 H          26.0151   40.0748   27.8798 H     1145  CY61145      0.0000
     84 H          25.4947   38.7749   25.8514 H     1145  CY61145      0.0000
     85 H          27.2067   38.1942   25.7239 H     1145  CY61145      0.0000
     86 H          26.1592   41.1336   25.4587 H     1145  CY61145      0.0000
     87 H          27.2260   40.2173   24.3120 H     1145  CY61145      0.0000
     88 H          28.9089   41.3090   25.9143 H     1145  CY61145      0.0000
@<TRIPOS>BOND
     1     1     2    1
     2     1    41    1
     3     1    42    1
     4     1    43    1
     5     2     3   ar
     6     2     6   ar
     7     3     4   ar
     8     4     5   ar
     9     5     6   ar
    10     5     7    1
    11     6    44    1
    12     7     8    2
    13     7     9    1
    14     9    10    1
    15     9    45    1
    16    10    11    1
    17    10    14    1
    18    10    46    1
    19    11    12    1
    20    11    13    1
    21    11    47    1
    22    12    48    1
    23    12    49    1
    24    12    50    1
    25    13    51    1
    26    13    52    1
    27    13    53    1
    28    14    15    2
    29    14    16    1
    30    16    17    1
    31    16    54    1
    32    16    55    1
    33    17    18    1
    34    17    23    1
    35    17    56    1
    36    18    19    1
    37    18    57    1
    38    18    58    1
    39    19    20    1
    40    19    59    1
    41    19    60    1
    42    20    21    1
    43    20    22    1
    44    20    61    1
    45    21    62    1
    46    21    63    1
    47    21    64    1
    48    22    65    1
    49    22    66    1
    50    22    67    1
    51    23    24    1
    52    23    25    1
    53    23    68    1
    54    24    69    1
    55    25    26    1
    56    25    70    1
    57    26    27    1
    58    26    34    1
    59    26    71    1
    60    27    28    1
    61    27    72    1
    62    27    73    1
    63    28    29    1
    64    28    74    1
    65    28    75    1
    66    29    30    2
    67    29    31    1
    68    31    32    1
    69    32    33    1
    70    32    76    1
    71    32    77    1
    72    33    78    1
    73    33    79    1
    74    33    80    1
    75    34    35    1
    76    34    81    1
    77    34    82    1
    78    35    36    1
    79    35    39    1
    80    35    83    1
    81    36    37    1
    82    36    84    1
    83    36    85    1
    84    37    38    1
    85    37    86    1
    86    37    87    1
    87    38    39    1
    88    38    88    1
    89    39    40    2

