@<TRIPOS>MOLECULE
DMS_1_A_202
 10 9 0 0 0
SMALL
NO_CHARGES

@<TRIPOS>ATOM
      1 S          -0.9100    9.4730   -7.2470 S.o    202  DMS202      0.0000
      2 O           0.0430    8.3900   -7.0420 O.2    202  DMS202      0.0000
      3 C1         -2.4370    8.7020   -7.1040 C.3    202  DMS202      0.0000
      4 C2         -1.0000    9.6600   -8.9780 C.3    202  DMS202      0.0000
      5 H          -3.2472    9.3890   -7.4235 H      202  DMS202      0.0000
      6 H          -2.6140    8.4301   -6.0431 H      202  DMS202      0.0000
      7 H          -2.4814    7.7764   -7.7142 H      202  DMS202      0.0000
      8 H          -1.8421   10.3296   -9.2484 H      202  DMS202      0.0000
      9 H          -1.1332    8.6799   -9.4807 H      202  DMS202      0.0000
     10 H          -0.0590   10.1187   -9.3453 H      202  DMS202      0.0000
@<TRIPOS>BOND
     1     1     2    2
     2     1     3    1
     3     1     4    1
     4     3     5    1
     5     3     6    1
     6     3     7    1
     7     4     8    1
     8     4     9    1
     9     4    10    1

