EDO_1_A_203
  -ISIS-            3D

 10  9  0  0  0  0  0  0  0  0  1 V2000
   28.0970   -0.5770    0.3370 C   0  0  0  0  0
   29.1800   -0.1540   -0.4150 O   0  0  0  0  0
   28.0090   -2.0400    0.4170 C   0  0  0  0  0
   28.6070   -2.5760    1.5870 O   0  0  0  0  0
   27.1685   -0.1618   -0.1121 H   0  0  0  0  0
   28.1634   -0.1302    1.3506 H   0  0  0  0  0
   28.9707   -0.2294   -1.3370 H   0  0  0  0  0
   28.4425   -2.5275   -0.4815 H   0  0  0  0  0
   26.9399   -2.3416    0.4325 H   0  0  0  0  0
   29.5312   -2.3632    1.5603 H   0  0  0  0  0
  1  2  1  0  0  0
  1  3  1  0  0  0
  1  5  1  0  0  0
  1  6  1  0  0  0
  2  7  1  0  0  0
  3  4  1  0  0  0
  3  8  1  0  0  0
  3  9  1  0  0  0
  4 10  1  0  0  0
M  END
$$$$
