@<TRIPOS>MOLECULE
EDO_1_A_704
 10 9 0 0 0
SMALL
NO_CHARGES

@<TRIPOS>ATOM
      1 C1         -2.3700   16.5750  -47.8560 C.3    704  EDO704      0.0000
      2 O1         -2.6390   17.1460  -46.5660 O.3    704  EDO704      0.0000
      3 C2         -3.6920   16.0320  -48.3720 C.3    704  EDO704      0.0000
      4 O2         -3.6620   15.9740  -49.7990 O.3    704  EDO704      0.0000
      5 H          -1.6130   15.7700  -47.7617 H      704  EDO704      0.0000
      6 H          -1.9574   17.3519  -48.5340 H      704  EDO704      0.0000
      7 H          -2.7663   18.0796  -46.6721 H      704  EDO704      0.0000
      8 H          -4.5310   16.6928  -48.0657 H      704  EDO704      0.0000
      9 H          -3.8921   15.0240  -47.9516 H      704  EDO704      0.0000
     10 H          -4.4769   15.5927  -50.0981 H      704  EDO704      0.0000
@<TRIPOS>BOND
     1     1     2    1
     2     1     3    1
     3     1     5    1
     4     1     6    1
     5     2     7    1
     6     3     4    1
     7     3     8    1
     8     3     9    1
     9     4    10    1

