@<TRIPOS>MOLECULE
EDO_1_A_705
 10 9 0 0 0
SMALL
NO_CHARGES

@<TRIPOS>ATOM
      1 C1         -0.4560   49.7550  -18.2940 C.3    705  EDO705      0.0000
      2 O1         -1.7330   49.2470  -18.6960 O.3    705  EDO705      0.0000
      3 C2         -0.5090   50.1950  -16.8320 C.3    705  EDO705      0.0000
      4 O2         -1.6590   51.0240  -16.6030 O.3    705  EDO705      0.0000
      5 H          -0.1866   50.6120  -18.9463 H      705  EDO705      0.0000
      6 H           0.3149   48.9716  -18.4434 H      705  EDO705      0.0000
      7 H          -2.3877   49.7755  -18.2529 H      705  EDO705      0.0000
      8 H           0.4197   50.7317  -16.5448 H      705  EDO705      0.0000
      9 H          -0.5842   49.3042  -16.1739 H      705  EDO705      0.0000
     10 H          -1.4052   51.9294  -16.7247 H      705  EDO705      0.0000
@<TRIPOS>BOND
     1     1     2    1
     2     1     3    1
     3     1     5    1
     4     1     6    1
     5     2     7    1
     6     3     4    1
     7     3     8    1
     8     3     9    1
     9     4    10    1

