EDO_1_A_706
  -ISIS-            3D

 10  9  0  0  0  0  0  0  0  0  1 V2000
    7.4830   36.5120   -7.6280 C   0  0  0  0  0
    7.3240   35.6550   -8.7760 O   0  0  0  0  0
    6.5500   36.0220   -6.5240 C   0  0  0  0  0
    5.2710   35.7210   -7.0930 O   0  0  0  0  0
    7.2276   37.5552   -7.9112 H   0  0  0  0  0
    8.5387   36.5019   -7.2850 H   0  0  0  0  0
    7.9010   35.9692   -9.4591 H   0  0  0  0  0
    6.4339   36.7867   -5.7292 H   0  0  0  0  0
    6.9589   35.1061   -6.0477 H   0  0  0  0  0
    5.4383   35.2560   -7.9051 H   0  0  0  0  0
  1  2  1  0  0  0
  1  3  1  0  0  0
  1  5  1  0  0  0
  1  6  1  0  0  0
  2  7  1  0  0  0
  3  4  1  0  0  0
  3  8  1  0  0  0
  3  9  1  0  0  0
  4 10  1  0  0  0
M  END
$$$$
