@<TRIPOS>MOLECULE
DMS_2_A_402
 10 9 0 0 0
SMALL
NO_CHARGES

@<TRIPOS>ATOM
      1 S          -6.2300   -1.0260    6.2330 S.o    402  DMS402      0.0000
      2 O          -7.1950   -0.7060    7.3130 O.2    402  DMS402      0.0000
      3 C1         -7.1450   -0.9970    4.6870 C.3    402  DMS402      0.0000
      4 C2         -5.9160   -2.7760    6.2820 C.3    402  DMS402      0.0000
      5 H          -6.4937   -1.3452    3.8592 H      402  DMS402      0.0000
      6 H          -7.4712    0.0418    4.4756 H      402  DMS402      0.0000
      7 H          -8.0384   -1.6505    4.7573 H      402  DMS402      0.0000
      8 H          -5.2973   -3.0720    5.4100 H      402  DMS402      0.0000
      9 H          -6.8711   -3.3396    6.2670 H      402  DMS402      0.0000
     10 H          -5.3653   -3.0232    7.2127 H      402  DMS402      0.0000
@<TRIPOS>BOND
     1     1     2    2
     2     1     3    1
     3     1     4    1
     4     3     5    1
     5     3     6    1
     6     3     7    1
     7     4     8    1
     8     4     9    1
     9     4    10    1

