@<TRIPOS>MOLECULE
DMS_2_A_403
 10 9 0 0 0
SMALL
NO_CHARGES

@<TRIPOS>ATOM
      1 S          -2.5230  -18.7660   -8.0590 S.o    403  DMS403      0.0000
      2 O          -3.7560  -18.8880   -9.0100 O.2    403  DMS403      0.0000
      3 C1         -1.1530  -18.3990   -9.1420 C.3    403  DMS403      0.0000
      4 C2         -2.0920  -20.4150   -7.6690 C.3    403  DMS403      0.0000
      5 H          -0.2008  -18.4571   -8.5761 H      403  DMS403      0.0000
      6 H          -1.2696  -17.3714   -9.5430 H      403  DMS403      0.0000
      7 H          -1.1256  -19.1163   -9.9877 H      403  DMS403      0.0000
      8 H          -1.1216  -20.4356   -7.1320 H      403  DMS403      0.0000
      9 H          -2.0146  -21.0268   -8.5911 H      403  DMS403      0.0000
     10 H          -2.8708  -20.8534   -7.0120 H      403  DMS403      0.0000
@<TRIPOS>BOND
     1     1     2    2
     2     1     3    1
     3     1     4    1
     4     3     5    1
     5     3     6    1
     6     3     7    1
     7     4     8    1
     8     4     9    1
     9     4    10    1

