@<TRIPOS>MOLECULE
3WL_1_A_401
 30 32 0 0 0
SMALL
NO_CHARGES

@<TRIPOS>ATOM
      1 C4        -32.8240  -67.0700   38.1880 C.ar   401  3WL401      0.0000
      2 C5        -33.1170  -68.1600   37.3920 C.ar   401  3WL401      0.0000
      3 C6        -32.9570  -65.8680   40.3630 C.2    401  3WL401      0.0000
      4 C7        -31.9930  -64.9650   40.1000 C.2    401  3WL401      0.0000
      5 C8        -31.7320  -63.8500   40.9620 C.2    401  3WL401      0.0000
      6 C10       -32.4870  -62.7200   43.0830 C.ar   401  3WL401      0.0000
      7 C13       -34.4390  -64.7020   43.4210 C.ar   401  3WL401      0.0000
      8 O         -30.8310  -63.0180   40.7220 O.2    401  3WL401      0.0000
      9 C9        -32.5940  -63.7540   42.1290 C.ar   401  3WL401      0.0000
     10 C14       -33.5820  -64.7220   42.3400 C.ar   401  3WL401      0.0000
     11 C12       -34.3130  -63.6740   44.3390 C.ar   401  3WL401      0.0000
     12 O2        -35.1310  -63.6080   45.4160 O.3    401  3WL401      0.0000
     13 C11       -33.3360  -62.6820   44.1660 C.ar   401  3WL401      0.0000
     14 O3        -33.2030  -61.6620   45.0630 O.3    401  3WL401      0.0000
     15 O4        -31.5530  -61.7540   42.9300 O.3    401  3WL401      0.0000
     16 O1        -33.7550  -65.7640   41.4610 O.3    401  3WL401      0.0000
     17 C3        -33.2590  -67.0250   39.5110 C.ar   401  3WL401      0.0000
     18 C2        -34.0080  -68.0940   40.0040 C.ar   401  3WL401      0.0000
     19 C1        -34.2910  -69.1800   39.1990 C.ar   401  3WL401      0.0000
     20 C         -33.8480  -69.2110   37.8970 C.ar   401  3WL401      0.0000
     21 H         -32.2459  -66.2434   37.7450 H      401  3WL401      0.0000
     22 H         -32.7658  -68.1878   36.3461 H      401  3WL401      0.0000
     23 H         -31.3467  -65.0499   39.2135 H      401  3WL401      0.0000
     24 H         -35.2015  -65.4898   43.5399 H      401  3WL401      0.0000
     25 H         -35.7606  -64.3130   45.4568 H      401  3WL401      0.0000
     26 H         -33.8597  -61.7912   45.7363 H      401  3WL401      0.0000
     27 H         -31.6237  -61.1429   43.6538 H      401  3WL401      0.0000
     28 H         -34.3782  -68.0917   41.0430 H      401  3WL401      0.0000
     29 H         -34.8766  -70.0248   39.6006 H      401  3WL401      0.0000
     30 H         -34.0790  -70.0795   37.2566 H      401  3WL401      0.0000
@<TRIPOS>BOND
     1     1     2   ar
     2     1    17   ar
     3     1    21    1
     4     2    20   ar
     5     2    22    1
     6     3     4    2
     7     3    16    1
     8     3    17    1
     9     4     5    1
    10     4    23    1
    11     5     8    2
    12     5     9    1
    13     6     9   ar
    14     6    13   ar
    15     6    15    1
    16     7    10   ar
    17     7    11   ar
    18     7    24    1
    19     9    10   ar
    20    10    16    1
    21    11    12    1
    22    11    13   ar
    23    12    25    1
    24    13    14    1
    25    14    26    1
    26    15    27    1
    27    17    18   ar
    28    18    19   ar
    29    18    28    1
    30    19    20   ar
    31    19    29    1
    32    20    30    1

