3WL_1_C_401
  -ISIS-            3D

 30 32  0  0  0  0  0  0  0  0  1 V2000
  -42.3490  -17.2910   59.6590 C   0  0  0  0  0
  -42.6730  -16.3170   60.5850 C   0  0  0  0  0
  -41.1010  -18.0350   57.6310 C   0  0  0  0  0
  -39.8360  -18.2720   57.2430 C   0  0  0  0  0
  -39.5050  -19.2730   56.2700 C   0  0  0  0  0
  -40.5060  -21.0040   54.7360 C   0  0  0  0  0
  -43.0610  -20.3150   55.6600 C   0  0  0  0  0
  -38.3260  -19.5000   55.9260 O   0  0  0  0  0
  -40.6410  -19.9900   55.7120 C   0  0  0  0  0
  -41.9340  -19.6820   56.1410 C   0  0  0  0  0
  -42.9000  -21.3010   54.7000 C   0  0  0  0  0
  -43.9760  -21.9530   54.1980 O   0  0  0  0  0
  -41.6200  -21.6450   54.2410 C   0  0  0  0  0
  -41.4560  -22.6220   53.3010 O   0  0  0  0  0
  -39.2790  -21.3440   54.2850 O   0  0  0  0  0
  -42.1560  -18.7080   57.0900 O   0  0  0  0  0
  -41.4710  -17.0070   58.6140 C   0  0  0  0  0
  -40.9040  -15.7350   58.5510 C   0  0  0  0  0
  -41.2400  -14.7690   59.4800 C   0  0  0  0  0
  -42.1210  -15.0610   60.4960 C   0  0  0  0  0
  -42.7927  -18.2970   59.7499 H   0  0  0  0  0
  -43.3771  -16.5506   61.4020 H   0  0  0  0  0
  -39.0001  -17.7047   57.6825 H   0  0  0  0  0
  -44.0666  -20.0483   56.0234 H   0  0  0  0  0
  -43.7878  -22.2811   53.3284 H   0  0  0  0  0
  -41.9911  -23.3767   53.5110 H   0  0  0  0  0
  -38.5504  -20.8665   54.6561 H   0  0  0  0  0
  -40.1898  -15.4839   57.7492 H   0  0  0  0  0
  -40.7964  -13.7610   59.4097 H   0  0  0  0  0
  -42.3838  -14.2880   61.2384 H   0  0  0  0  0
  1  2  2  0  0  0
  1 17  1  0  0  0
  1 21  1  0  0  0
  2 20  1  0  0  0
  2 22  1  0  0  0
  3  4  2  0  0  0
  3 16  1  0  0  0
  3 17  1  0  0  0
  4  5  1  0  0  0
  4 23  1  0  0  0
  5  8  2  0  0  0
  5  9  1  0  0  0
  6  9  2  0  0  0
  6 13  1  0  0  0
  6 15  1  0  0  0
  7 10  2  0  0  0
  7 11  1  0  0  0
  7 24  1  0  0  0
  9 10  1  0  0  0
 10 16  1  0  0  0
 11 12  1  0  0  0
 11 13  2  0  0  0
 12 25  1  0  0  0
 13 14  1  0  0  0
 14 26  1  0  0  0
 15 27  1  0  0  0
 17 18  2  0  0  0
 18 19  1  0  0  0
 18 28  1  0  0  0
 19 20  2  0  0  0
 19 29  1  0  0  0
 20 30  1  0  0  0
M  END
$$$$
