3WL_1_A_401
  -ISIS-            3D

 30 32  0  0  0  0  0  0  0  0  1 V2000
  -32.8240  -67.0700   38.1880 C   0  0  0  0  0
  -33.1170  -68.1600   37.3920 C   0  0  0  0  0
  -32.9570  -65.8680   40.3630 C   0  0  0  0  0
  -31.9930  -64.9650   40.1000 C   0  0  0  0  0
  -31.7320  -63.8500   40.9620 C   0  0  0  0  0
  -32.4870  -62.7200   43.0830 C   0  0  0  0  0
  -34.4390  -64.7020   43.4210 C   0  0  0  0  0
  -30.8310  -63.0180   40.7220 O   0  0  0  0  0
  -32.5940  -63.7540   42.1290 C   0  0  0  0  0
  -33.5820  -64.7220   42.3400 C   0  0  0  0  0
  -34.3130  -63.6740   44.3390 C   0  0  0  0  0
  -35.1310  -63.6080   45.4160 O   0  0  0  0  0
  -33.3360  -62.6820   44.1660 C   0  0  0  0  0
  -33.2030  -61.6620   45.0630 O   0  0  0  0  0
  -31.5530  -61.7540   42.9300 O   0  0  0  0  0
  -33.7550  -65.7640   41.4610 O   0  0  0  0  0
  -33.2590  -67.0250   39.5110 C   0  0  0  0  0
  -34.0080  -68.0940   40.0040 C   0  0  0  0  0
  -34.2910  -69.1800   39.1990 C   0  0  0  0  0
  -33.8480  -69.2110   37.8970 C   0  0  0  0  0
  -32.2459  -66.2434   37.7450 H   0  0  0  0  0
  -32.7658  -68.1878   36.3461 H   0  0  0  0  0
  -31.3467  -65.0499   39.2135 H   0  0  0  0  0
  -35.2015  -65.4898   43.5399 H   0  0  0  0  0
  -35.7606  -64.3130   45.4568 H   0  0  0  0  0
  -33.8597  -61.7912   45.7363 H   0  0  0  0  0
  -31.6237  -61.1429   43.6538 H   0  0  0  0  0
  -34.3782  -68.0917   41.0430 H   0  0  0  0  0
  -34.8766  -70.0248   39.6006 H   0  0  0  0  0
  -34.0790  -70.0795   37.2566 H   0  0  0  0  0
  1  2  2  0  0  0
  1 17  1  0  0  0
  1 21  1  0  0  0
  2 20  1  0  0  0
  2 22  1  0  0  0
  3  4  2  0  0  0
  3 16  1  0  0  0
  3 17  1  0  0  0
  4  5  1  0  0  0
  4 23  1  0  0  0
  5  8  2  0  0  0
  5  9  1  0  0  0
  6  9  2  0  0  0
  6 13  1  0  0  0
  6 15  1  0  0  0
  7 10  2  0  0  0
  7 11  1  0  0  0
  7 24  1  0  0  0
  9 10  1  0  0  0
 10 16  1  0  0  0
 11 12  1  0  0  0
 11 13  2  0  0  0
 12 25  1  0  0  0
 13 14  1  0  0  0
 14 26  1  0  0  0
 15 27  1  0  0  0
 17 18  2  0  0  0
 18 19  1  0  0  0
 18 28  1  0  0  0
 19 20  2  0  0  0
 19 29  1  0  0  0
 20 30  1  0  0  0
M  END
$$$$
