@<TRIPOS>MOLECULE
DMS_2_A_404
 10 9 0 0 0
SMALL
NO_CHARGES

@<TRIPOS>ATOM
      1 S         -20.9760   14.4450   -7.5510 S.o    404  DMS404      0.0000
      2 O         -22.3680   14.8770   -7.7540 O.2    404  DMS404      0.0000
      3 C1        -20.7140   13.1580   -8.7360 C.3    404  DMS404      0.0000
      4 C2        -21.0610   13.4310   -6.1150 C.3    404  DMS404      0.0000
      5 H         -19.7487   12.6505   -8.5337 H      404  DMS404      0.0000
      6 H         -20.6790   13.5976   -9.7538 H      404  DMS404      0.0000
      7 H         -21.5370   12.4150   -8.6932 H      404  DMS404      0.0000
      8 H         -20.0930   12.9115   -5.9622 H      404  DMS404      0.0000
      9 H         -21.8699   12.6780   -6.2147 H      404  DMS404      0.0000
     10 H         -21.2675   14.0646   -5.2282 H      404  DMS404      0.0000
@<TRIPOS>BOND
     1     1     2    2
     2     1     3    1
     3     1     4    1
     4     3     5    1
     5     3     6    1
     6     3     7    1
     7     4     8    1
     8     4     9    1
     9     4    10    1

