DMS_1_A_404
  -ISIS-            3D

 10  9  0  0  0  0  0  0  0  0  1 V2000
   20.9760   14.4450    7.5510 S   0  0  0  0  0
   22.3680   14.8770    7.7540 O   0  0  0  0  0
   20.7140   13.1580    8.7360 C   0  0  0  0  0
   21.0610   13.4310    6.1150 C   0  0  0  0  0
   19.7487   12.6505    8.5337 H   0  0  0  0  0
   20.6790   13.5976    9.7538 H   0  0  0  0  0
   21.5370   12.4150    8.6932 H   0  0  0  0  0
   20.0930   12.9115    5.9622 H   0  0  0  0  0
   21.8699   12.6780    6.2147 H   0  0  0  0  0
   21.2675   14.0646    5.2282 H   0  0  0  0  0
  1  2  2  0  0  0
  1  3  1  0  0  0
  1  4  1  0  0  0
  3  5  1  0  0  0
  3  6  1  0  0  0
  3  7  1  0  0  0
  4  8  1  0  0  0
  4  9  1  0  0  0
  4 10  1  0  0  0
M  END
$$$$
