@<TRIPOS>MOLECULE
XAN_1_A_201
 15 16 0 0 0
SMALL
NO_CHARGES

@<TRIPOS>ATOM
      1 N9        -45.5240  -29.2750    6.9800 N.ar   201  XAN201      0.0000
      2 C4        -46.7150  -29.1610    6.3730 C.ar   201  XAN201      0.0000
      3 N3        -48.0010  -29.1550    6.8300 N.ar   201  XAN201      0.0000
      4 C2        -49.0410  -29.0230    5.9900 C.ar   201  XAN201      0.0000
      5 O2        -50.1580  -29.0380    6.4030 O.2    201  XAN201      0.0000
      6 N1        -48.7660  -28.8920    4.6920 N.ar   201  XAN201      0.0000
      7 C6        -47.5630  -28.8780    4.1940 C.ar   201  XAN201      0.0000
      8 O6        -47.3890  -28.7320    3.0310 O.2    201  XAN201      0.0000
      9 C5        -46.4560  -29.0510    5.0470 C.ar   201  XAN201      0.0000
     10 N7        -45.1050  -29.0860    4.8820 N.ar   201  XAN201      0.0000
     11 C8        -44.5950  -29.2280    6.0700 C.ar   201  XAN201      0.0000
     12 H         -44.4491  -29.0014    3.7435 H      201  XAN201      0.0000
     13 H         -43.5073  -29.2889    6.1982 H      201  XAN201      0.0000
     14 H         -49.5592  -28.7878    4.0455 H      201  XAN201      0.0000
     15 H         -48.1093  -29.2595    7.8455 H      201  XAN201      0.0000
@<TRIPOS>BOND
     1     1     2   ar
     2     1    11   ar
     3     2     3   ar
     4     2     9   ar
     5     3     4   ar
     6     3    15    1
     7     4     5    2
     8     4     6   ar
     9     6     7   ar
    10     6    14    1
    11     7     8    2
    12     7     9   ar
    13     9    10   ar
    14    10    11   ar
    15    10    12    1
    16    11    13    1

