@<TRIPOS>MOLECULE
BHA_1_A_201
 17 17 0 0 0
SMALL
NO_CHARGES

@<TRIPOS>ATOM
      1 C1'       -47.6260  -29.0500    2.7930 C.2    201  BHA201      0.0000
      2 O1'       -48.3120  -28.9900    1.7740 O.co2  201  BHA201     -0.5000
      3 O2'       -46.3680  -29.1040    2.6730 O.co2  201  BHA201     -0.5000
      4 C1        -48.3560  -29.0880    4.1390 C.ar   201  BHA201      0.0000
      5 C2        -49.7390  -29.0180    4.1490 C.ar   201  BHA201      0.0000
      6 C3        -50.4510  -29.0730    5.3330 C.ar   201  BHA201      0.0000
      7 C4        -49.7820  -29.2230    6.5510 C.ar   201  BHA201      0.0000
      8 C5        -48.3790  -29.2960    6.5180 C.ar   201  BHA201      0.0000
      9 C6        -47.6900  -29.2310    5.3080 C.ar   201  BHA201      0.0000
     10 O2        -50.4280  -28.8830    2.9660 O.3    201  BHA201      0.0000
     11 N4        -50.5360  -29.2690    7.7940 N.3    201  BHA201      0.0000
     12 H         -51.5512  -29.0033    5.3302 H      201  BHA201      0.0000
     13 H         -47.8163  -29.4065    7.4597 H      201  BHA201      0.0000
     14 H         -46.5890  -29.2990    5.3166 H      201  BHA201      0.0000
     15 H         -51.3694  -28.8466    3.0550 H      201  BHA201      0.0000
     16 H         -49.9824  -29.3692    8.6542 H      201  BHA201      0.0000
     17 H         -51.5586  -29.1983    7.7171 H      201  BHA201      0.0000
@<TRIPOS>BOND
     1     1     2   ar
     2     1     3   ar
     3     1     4    1
     4     4     5   ar
     5     4     9   ar
     6     5     6   ar
     7     5    10    1
     8     6     7   ar
     9     6    12    1
    10     7     8   ar
    11     7    11    1
    12     8     9   ar
    13     8    13    1
    14     9    14    1
    15    10    15    1
    16    11    16    1
    17    11    17    1

