@<TRIPOS>MOLECULE
FOL_1_A_409
 49 51 0 0 0
SMALL
NO_CHARGES

@<TRIPOS>ATOM
      1 N1         45.5680   37.9070   78.2090 N.ar   409  FOL409      0.0000
      2 C2         44.2490   38.1510   78.1380 C.ar   409  FOL409      0.0000
      3 NA2        43.6770   38.9190   79.1030 N.pl3  409  FOL409      0.0000
      4 N3         43.4710   37.6610   77.1400 N.ar   409  FOL409      0.0000
      5 C4         43.9730   36.8960   76.1450 C.ar   409  FOL409      0.0000
      6 O4         43.2390   36.4570   75.2290 O.2    409  FOL409      0.0000
      7 C4A        45.4230   36.5990   76.1710 C.ar   409  FOL409      0.0000
      8 N5         46.0440   35.8490   75.2420 N.ar   409  FOL409      0.0000
      9 C6         47.3770   35.6360   75.3640 C.ar   409  FOL409      0.0000
     10 C7         48.1030   36.1750   76.4280 C.ar   409  FOL409      0.0000
     11 N8         47.5220   36.9250   77.3640 N.ar   409  FOL409      0.0000
     12 C8A        46.1980   37.1650   77.2930 C.ar   409  FOL409      0.0000
     13 C9         48.1070   34.8000   74.3420 C.3    409  FOL409      0.0000
     14 N10        47.6210   35.0970   73.0080 N.pl3  409  FOL409      0.0000
     15 C11        49.5990   33.3150   69.8390 C.ar   409  FOL409      0.0000
     16 C12        48.2690   33.7050   69.6900 C.ar   409  FOL409      0.0000
     17 C13        47.5950   34.3060   70.7510 C.ar   409  FOL409      0.0000
     18 C14        48.2540   34.5220   71.9610 C.ar   409  FOL409      0.0000
     19 C15        49.5780   34.1280   72.1070 C.ar   409  FOL409      0.0000
     20 C16        50.2490   33.5320   71.0470 C.ar   409  FOL409      0.0000
     21 C          50.3500   32.6550   68.7150 C.2    409  FOL409      0.0000
     22 O          51.0210   31.6680   68.9840 O.2    409  FOL409      0.0000
     23 N          50.2960   33.1360   67.4710 N.am   409  FOL409      0.0000
     24 CA         51.2240   32.6340   66.4710 C.3    409  FOL409      0.0000
     25 CB         50.8580   33.0870   65.0630 C.3    409  FOL409      0.0000
     26 CG         49.5610   32.4520   64.5700 C.3    409  FOL409      0.0000
     27 CD         49.3550   32.8290   63.1210 C.2    409  FOL409      0.0000
     28 OE1        49.0680   31.9290   62.2970 O.co2  409  FOL409     -0.5000
     29 OE2        49.4870   34.0320   62.7970 O.co2  409  FOL409     -0.5000
     30 CT         52.6170   33.1070   66.7660 C.2    409  FOL409      0.0000
     31 O1         53.5720   32.3670   66.4380 O.co2  409  FOL409     -0.5000
     32 O2         52.7650   34.2160   67.3290 O.co2  409  FOL409     -0.5000
     33 H          49.1864   35.9964   76.5231 H      409  FOL409      0.0000
     34 H          47.9665   33.7235   74.5933 H      409  FOL409      0.0000
     35 H          49.1862   35.0368   74.4573 H      409  FOL409      0.0000
     36 H          46.7925   35.6755   72.8132 H      409  FOL409      0.0000
     37 H          47.7373   33.5332   68.7394 H      409  FOL409      0.0000
     38 H          46.5408   34.6068   70.6323 H      409  FOL409      0.0000
     39 H          50.1520   34.2707   73.0327 H      409  FOL409      0.0000
     40 H          51.3024   33.2281   71.1685 H      409  FOL409      0.0000
     41 H          49.6624   33.9199   67.2677 H      409  FOL409      0.0000
     42 H          51.2289   31.5168   66.4786 H      409  FOL409      0.0000
     43 H          51.6811   32.8061   64.3639 H      409  FOL409      0.0000
     44 H          50.7823   34.1989   65.0356 H      409  FOL409      0.0000
     45 H          48.6952   32.8031   65.1760 H      409  FOL409      0.0000
     46 H          49.6083   31.3439   64.6742 H      409  FOL409      0.0000
     47 H          42.6692   39.1129   79.0586 H      409  FOL409      0.0000
     48 H          44.3250   39.2552   79.8252 H      409  FOL409      0.0000
     49 H          42.4757   37.9047   77.1807 H      409  FOL409      0.0000
@<TRIPOS>BOND
     1     1     2   ar
     2     1    12   ar
     3     2     3    1
     4     2     4   ar
     5     3    47    1
     6     3    48    1
     7     4     5   ar
     8     4    49    1
     9     5     6    2
    10     5     7   ar
    11     7     8   ar
    12     7    12   ar
    13     8     9   ar
    14     9    10   ar
    15     9    13    1
    16    10    11   ar
    17    10    33    1
    18    11    12   ar
    19    13    14    1
    20    13    34    1
    21    13    35    1
    22    14    18    1
    23    14    36    1
    24    15    16   ar
    25    15    20   ar
    26    15    21    1
    27    16    17   ar
    28    16    37    1
    29    17    18   ar
    30    17    38    1
    31    18    19   ar
    32    19    20   ar
    33    19    39    1
    34    20    40    1
    35    21    22    2
    36    21    23    1
    37    23    24    1
    38    23    41    1
    39    24    25    1
    40    24    30    1
    41    24    42    1
    42    25    26    1
    43    25    43    1
    44    25    44    1
    45    26    27    1
    46    26    45    1
    47    26    46    1
    48    27    28   ar
    49    27    29   ar
    50    30    31   ar
    51    30    32   ar

