FOL_1_A_409
  -ISIS-            3D

 49 51  0  0  0  0  0  0  0  0  1 V2000
   45.5680   37.9070   78.2090 N   0  0  0  0  0
   44.2490   38.1510   78.1380 C   0  0  0  0  0
   43.6770   38.9190   79.1030 N   0  0  0  0  0
   43.4710   37.6610   77.1400 N   0  0  0  0  0
   43.9730   36.8960   76.1450 C   0  0  0  0  0
   43.2390   36.4570   75.2290 O   0  0  0  0  0
   45.4230   36.5990   76.1710 C   0  0  0  0  0
   46.0440   35.8490   75.2420 N   0  0  0  0  0
   47.3770   35.6360   75.3640 C   0  0  0  0  0
   48.1030   36.1750   76.4280 C   0  0  0  0  0
   47.5220   36.9250   77.3640 N   0  0  0  0  0
   46.1980   37.1650   77.2930 C   0  0  0  0  0
   48.1070   34.8000   74.3420 C   0  0  0  0  0
   47.6210   35.0970   73.0080 N   0  0  0  0  0
   49.5990   33.3150   69.8390 C   0  0  0  0  0
   48.2690   33.7050   69.6900 C   0  0  0  0  0
   47.5950   34.3060   70.7510 C   0  0  0  0  0
   48.2540   34.5220   71.9610 C   0  0  0  0  0
   49.5780   34.1280   72.1070 C   0  0  0  0  0
   50.2490   33.5320   71.0470 C   0  0  0  0  0
   50.3500   32.6550   68.7150 C   0  0  0  0  0
   51.0210   31.6680   68.9840 O   0  0  0  0  0
   50.2960   33.1360   67.4710 N   0  0  0  0  0
   51.2240   32.6340   66.4710 C   0  0  0  0  0
   50.8580   33.0870   65.0630 C   0  0  0  0  0
   49.5610   32.4520   64.5700 C   0  0  0  0  0
   49.3550   32.8290   63.1210 C   0  0  0  0  0
   49.0680   31.9290   62.2970 O   0  0  0  0  0
   49.4870   34.0320   62.7970 O   0  0  0  0  0
   52.6170   33.1070   66.7660 C   0  0  0  0  0
   53.5720   32.3670   66.4380 O   0  0  0  0  0
   52.7650   34.2160   67.3290 O   0  0  0  0  0
   49.1864   35.9964   76.5231 H   0  0  0  0  0
   47.9665   33.7235   74.5933 H   0  0  0  0  0
   49.1862   35.0368   74.4573 H   0  0  0  0  0
   46.7925   35.6755   72.8132 H   0  0  0  0  0
   47.7373   33.5332   68.7394 H   0  0  0  0  0
   46.5408   34.6068   70.6323 H   0  0  0  0  0
   50.1520   34.2707   73.0327 H   0  0  0  0  0
   51.3024   33.2281   71.1685 H   0  0  0  0  0
   49.6624   33.9199   67.2677 H   0  0  0  0  0
   51.2289   31.5168   66.4786 H   0  0  0  0  0
   51.6811   32.8061   64.3639 H   0  0  0  0  0
   50.7823   34.1989   65.0356 H   0  0  0  0  0
   48.6952   32.8031   65.1760 H   0  0  0  0  0
   49.6083   31.3439   64.6742 H   0  0  0  0  0
   42.6692   39.1129   79.0586 H   0  0  0  0  0
   44.3250   39.2552   79.8252 H   0  0  0  0  0
   42.4757   37.9047   77.1807 H   0  0  0  0  0
  1  2  1  0  0  0
  1 12  2  0  0  0
  2  3  1  0  0  0
  2  4  2  0  0  0
  3 47  1  0  0  0
  3 48  1  0  0  0
  4  5  1  0  0  0
  4 49  1  0  0  0
  5  6  2  0  0  0
  5  7  1  0  0  0
  7  8  1  0  0  0
  7 12  1  0  0  0
  8  9  2  0  0  0
  9 10  1  0  0  0
  9 13  1  0  0  0
 10 11  2  0  0  0
 10 33  1  0  0  0
 11 12  1  0  0  0
 13 14  1  0  0  0
 13 34  1  0  0  0
 13 35  1  0  0  0
 14 18  1  0  0  0
 14 36  1  0  0  0
 15 16  2  0  0  0
 15 20  1  0  0  0
 15 21  1  0  0  0
 16 17  1  0  0  0
 16 37  1  0  0  0
 17 18  2  0  0  0
 17 38  1  0  0  0
 18 19  1  0  0  0
 19 20  2  0  0  0
 19 39  1  0  0  0
 20 40  1  0  0  0
 21 22  2  0  0  0
 21 23  1  0  0  0
 23 24  1  0  0  0
 23 41  1  0  0  0
 24 25  1  0  0  0
 24 30  1  0  0  0
 24 42  1  0  0  0
 25 26  1  0  0  0
 25 43  1  0  0  0
 25 44  1  0  0  0
 26 27  1  0  0  0
 26 45  1  0  0  0
 26 46  1  0  0  0
 27 28  2  0  0  0
 27 29  2  0  0  0
 30 31  2  0  0  0
 30 32  2  0  0  0
M  END
$$$$
