@<TRIPOS>MOLECULE
IMD_1_A_411
 9 9 0 0 0
SMALL
NO_CHARGES

@<TRIPOS>ATOM
      1 N1         39.5830   34.0390   50.1480 N.ar   411  IMD411      0.0000
      2 C2         38.6210   33.6710   49.2730 C.ar   411  IMD411      0.0000
      3 N3         38.4020   34.6900   48.4180 N.ar   411  IMD411      0.0000
      4 C4         39.2270   35.7060   48.7480 C.ar   411  IMD411      0.0000
      5 C5         39.9760   35.2960   49.8390 C.ar   411  IMD411      0.0000
      6 H          39.9521   33.4617   50.9135 H      411  IMD411      0.0000
      7 H          38.0540   32.7351   49.1886 H      411  IMD411      0.0000
      8 H          39.2114   36.6398   48.1741 H      411  IMD411      0.0000
      9 H          40.7481   35.8736   50.3682 H      411  IMD411      0.0000
@<TRIPOS>BOND
     1     1     2   ar
     2     1     5   ar
     3     1     6    1
     4     2     3   ar
     5     2     7    1
     6     3     4   ar
     7     4     5   ar
     8     4     8    1
     9     5     9    1

