@<TRIPOS>MOLECULE
DMS_2_A_402
 10 9 0 0 0
SMALL
NO_CHARGES

@<TRIPOS>ATOM
      1 S          20.5510   -3.3480   41.8280 S.o    402  DMS402      0.0000
      2 O          20.4260   -2.8240   40.4330 O.2    402  DMS402      0.0000
      3 C1         21.9790   -4.4610   41.9300 C.3    402  DMS402      0.0000
      4 C2         21.1130   -2.0170   42.9240 C.3    402  DMS402      0.0000
      5 H          22.1142   -4.7964   42.9786 H      402  DMS402      0.0000
      6 H          22.8926   -3.9338   41.5867 H      402  DMS402      0.0000
      7 H          21.8004   -5.3448   41.2841 H      402  DMS402      0.0000
      8 H          21.2721   -2.4193   43.9453 H      402  DMS402      0.0000
      9 H          20.3396   -1.2228   42.9608 H      402  DMS402      0.0000
     10 H          22.0615   -1.5886   42.5403 H      402  DMS402      0.0000
@<TRIPOS>BOND
     1     1     2    2
     2     1     3    1
     3     1     4    1
     4     3     5    1
     5     3     6    1
     6     3     7    1
     7     4     8    1
     8     4     9    1
     9     4    10    1

