@<TRIPOS>MOLECULE
HBD_1_A_201
 17 17 0 0 0
SMALL
NO_CHARGES

@<TRIPOS>ATOM
      1 C1        -49.6310  -29.2410    4.7300 C.ar   201  HBD201      0.0000
      2 C2        -48.3360  -29.4390    5.1570 C.ar   201  HBD201      0.0000
      3 C3        -47.2660  -29.4080    4.3000 C.ar   201  HBD201      0.0000
      4 C4        -47.5000  -29.1690    2.9550 C.ar   201  HBD201      0.0000
      5 C5        -48.7940  -28.9930    2.4920 C.ar   201  HBD201      0.0000
      6 C6        -49.8660  -29.0110    3.3940 C.ar   201  HBD201      0.0000
      7 C1'       -50.7560  -29.3210    5.7720 C.2    201  HBD201      0.0000
      8 O1'       -51.8660  -29.5330    5.4610 O.2    201  HBD201      0.0000
      9 N1'       -50.4590  -29.1570    7.1700 N.3    201  HBD201      0.0000
     10 O4        -46.4200  -29.1240    2.0650 O.3    201  HBD201      0.0000
     11 H         -48.1180  -29.6463    6.2162 H      201  HBD201      0.0000
     12 H         -46.2381  -29.5679    4.6655 H      201  HBD201      0.0000
     13 H         -48.9964  -28.8241    1.4208 H      201  HBD201      0.0000
     14 H         -50.8948  -28.8531    3.0300 H      201  HBD201      0.0000
     15 H         -49.5022  -28.9587    7.4850 H      201  HBD201      0.0000
     16 H         -51.2381  -29.2390    7.8355 H      201  HBD201      0.0000
     17 H         -46.6947  -28.9629    1.1736 H      201  HBD201      0.0000
@<TRIPOS>BOND
     1     1     2   ar
     2     1     6   ar
     3     1     7    1
     4     2     3   ar
     5     2    11    1
     6     3     4   ar
     7     3    12    1
     8     4     5   ar
     9     4    10    1
    10     5     6   ar
    11     5    13    1
    12     6    14    1
    13     7     8    2
    14     7     9    1
    15     9    15    1
    16     9    16    1
    17    10    17    1

