@<TRIPOS>MOLECULE
06Y_1_A_201
 18 18 0 0 0
SMALL
NO_CHARGES

@<TRIPOS>ATOM
      1 C1        -43.1330  -32.2390    1.9740 C.2    201  06Y201      0.0000
      2 O1        -43.1650  -33.4720    2.1460 O.co2  201  06Y201     -0.5000
      3 C2        -43.4300  -31.6710    0.5970 C.3    201  06Y201      0.0000
      4 O2        -43.4910  -32.6880   -0.4040 O.3    201  06Y201      0.0000
      5 C3        -44.6660  -33.4450   -0.4550 C.ar   201  06Y201      0.0000
      6 C4        -44.6470  -34.5960   -1.1580 C.ar   201  06Y201      0.0000
      7 C5        -45.7830  -35.3780   -1.2870 C.ar   201  06Y201      0.0000
      8 C6        -46.9510  -35.0190   -0.7150 C.ar   201  06Y201      0.0000
      9 C7        -46.9880  -33.8910    0.0310 C.ar   201  06Y201      0.0000
     10 C8        -45.8470  -33.0870    0.1490 C.ar   201  06Y201      0.0000
     11 OXT       -42.8730  -31.4990    2.9130 O.co2  201  06Y201     -0.5000
     12 H         -42.5887  -30.9978    0.3241 H      201  06Y201      0.0000
     13 H         -44.3256  -31.0205    0.5853 H      201  06Y201      0.0000
     14 H         -43.7131  -34.9204   -1.6487 H      201  06Y201      0.0000
     15 H         -45.7300  -36.3100   -1.8764 H      201  06Y201      0.0000
     16 H         -47.8533  -35.6420   -0.8377 H      201  06Y201      0.0000
     17 H         -47.9235  -33.5922    0.5347 H      201  06Y201      0.0000
     18 H         -45.9483  -32.1665    0.7444 H      201  06Y201      0.0000
@<TRIPOS>BOND
     1     1     2   ar
     2     1     3    1
     3     1    11   ar
     4     3     4    1
     5     3    12    1
     6     3    13    1
     7     4     5    1
     8     5     6   ar
     9     5    10   ar
    10     6     7   ar
    11     6    14    1
    12     7     8   ar
    13     7    15    1
    14     8     9   ar
    15     8    16    1
    16     9    10   ar
    17     9    17    1
    18    10    18    1

