@<TRIPOS>MOLECULE
DMS_2_A_402
 10 9 0 0 0
SMALL
NO_CHARGES

@<TRIPOS>ATOM
      1 S          -6.1390   -0.9810    6.0810 S.o    402  DMS402      0.0000
      2 O          -6.7900   -0.7530    7.4120 O.2    402  DMS402      0.0000
      3 C1         -7.4280   -0.8270    4.8700 C.3    402  DMS402      0.0000
      4 C2         -5.8780   -2.7210    5.9390 C.3    402  DMS402      0.0000
      5 H          -7.0433   -1.1187    3.8713 H      402  DMS402      0.0000
      6 H          -7.7672    0.2283    4.8282 H      402  DMS402      0.0000
      7 H          -8.2895   -1.4726    5.1374 H      402  DMS402      0.0000
      8 H          -5.5279   -2.9678    4.9158 H      402  DMS402      0.0000
      9 H          -6.8166   -3.2728    6.1510 H      402  DMS402      0.0000
     10 H          -5.1028   -3.0365    6.6670 H      402  DMS402      0.0000
@<TRIPOS>BOND
     1     1     2    2
     2     1     3    1
     3     1     4    1
     4     3     5    1
     5     3     6    1
     6     3     7    1
     7     4     8    1
     8     4     9    1
     9     4    10    1

