DMS_1_A_401
  -ISIS-            3D

 10  9  0  0  0  0  0  0  0  0  1 V2000
    6.9800  -28.3080   21.2520 S   0  0  0  0  0
    7.5090  -27.2760   22.1840 O   0  0  0  0  0
    5.7300  -29.1770   22.1700 C   0  0  0  0  0
    5.9150  -27.4570   20.1280 C   0  0  0  0  0
    5.1840  -29.8704   21.4982 H   0  0  0  0  0
    5.0138  -28.4608   22.6228 H   0  0  0  0  0
    6.2113  -29.7661   22.9774 H   0  0  0  0  0
    5.3676  -28.1892   19.5001 H   0  0  0  0  0
    6.5234  -26.8052   19.4681 H   0  0  0  0  0
    5.1871  -26.8297   20.6825 H   0  0  0  0  0
  1  2  2  0  0  0
  1  3  1  0  0  0
  1  4  1  0  0  0
  3  5  1  0  0  0
  3  6  1  0  0  0
  3  7  1  0  0  0
  4  8  1  0  0  0
  4  9  1  0  0  0
  4 10  1  0  0  0
M  END
$$$$
