@<TRIPOS>MOLECULE
DMS_2_A_402
 10 9 0 0 0
SMALL
NO_CHARGES

@<TRIPOS>ATOM
      1 S          -6.1120   -1.2260    6.1710 S.o    402  DMS402      0.0000
      2 O          -6.8060   -1.0460    7.4850 O.2    402  DMS402      0.0000
      3 C1         -7.3270   -0.8660    4.9220 C.3    402  DMS402      0.0000
      4 C2         -5.9960   -2.9740    5.9010 C.3    402  DMS402      0.0000
      5 H          -6.9215   -1.1153    3.9200 H      402  DMS402      0.0000
      6 H          -7.5717    0.2155    4.9502 H      402  DMS402      0.0000
      7 H          -8.2522   -1.4506    5.1027 H      402  DMS402      0.0000
      8 H          -5.6207   -3.1727    4.8762 H      402  DMS402      0.0000
      9 H          -6.9883   -3.4525    6.0304 H      402  DMS402      0.0000
     10 H          -5.2864   -3.4116    6.6327 H      402  DMS402      0.0000
@<TRIPOS>BOND
     1     1     2    2
     2     1     3    1
     3     1     4    1
     4     3     5    1
     5     3     6    1
     6     3     7    1
     7     4     8    1
     8     4     9    1
     9     4    10    1

