@<TRIPOS>MOLECULE
DMS_2_A_401
 10 9 0 0 0
SMALL
NO_CHARGES

@<TRIPOS>ATOM
      1 S          -6.7620  -27.9340  -21.5350 S.o    401  DMS401      0.0000
      2 O          -7.8300  -27.2480  -22.3250 O.2    401  DMS401      0.0000
      3 C1         -5.5440  -28.4650  -22.7080 C.3    401  DMS401      0.0000
      4 C2         -5.7980  -26.6540  -20.7820 C.3    401  DMS401      0.0000
      5 H          -4.6530  -28.8567  -22.1760 H      401  DMS401      0.0000
      6 H          -5.2425  -27.6222  -23.3634 H      401  DMS401      0.0000
      7 H          -5.9688  -29.2747  -23.3359 H      401  DMS401      0.0000
      8 H          -4.9011  -27.0918  -20.2981 H      401  DMS401      0.0000
      9 H          -6.4072  -26.1437  -20.0081 H      401  DMS401      0.0000
     10 H          -5.4821  -25.9084  -21.5403 H      401  DMS401      0.0000
@<TRIPOS>BOND
     1     1     2    2
     2     1     3    1
     3     1     4    1
     4     3     5    1
     5     3     6    1
     6     3     7    1
     7     4     8    1
     8     4     9    1
     9     4    10    1

