@<TRIPOS>MOLECULE
DMS_2_A_405
 10 9 0 0 0
SMALL
NO_CHARGES

@<TRIPOS>ATOM
      1 S          -5.5450    0.3650  -18.2460 S.o    405  DMS405      0.0000
      2 O          -4.8770    1.4480  -19.0750 O.2    405  DMS405      0.0000
      3 C1         -6.3420   -0.7070  -19.4050 C.3    405  DMS405      0.0000
      4 C2         -6.9970    1.0950  -17.5730 C.3    405  DMS405      0.0000
      5 H          -6.9757   -1.4411  -18.8666 H      405  DMS405      0.0000
      6 H          -5.5724   -1.2575  -19.9839 H      405  DMS405      0.0000
      7 H          -6.9701   -0.1218  -20.1076 H      405  DMS405      0.0000
      8 H          -7.6154    0.3194  -17.0766 H      405  DMS405      0.0000
      9 H          -7.5917    1.5862  -18.3703 H      405  DMS405      0.0000
     10 H          -6.7095    1.8564  -16.8193 H      405  DMS405      0.0000
@<TRIPOS>BOND
     1     1     2    2
     2     1     3    1
     3     1     4    1
     4     3     5    1
     5     3     6    1
     6     3     7    1
     7     4     8    1
     8     4     9    1
     9     4    10    1

