@<TRIPOS>MOLECULE
DMS_1_A_402
 10 9 0 0 0
SMALL
NO_CHARGES

@<TRIPOS>ATOM
      1 S           6.2020   -0.9680   -6.4270 S.o    402  DMS402      0.0000
      2 O           7.0850   -0.8700   -7.5900 O.2    402  DMS402      0.0000
      3 C1          7.2540   -0.8140   -5.0150 C.3    402  DMS402      0.0000
      4 C2          5.8130   -2.6790   -6.2650 C.3    402  DMS402      0.0000
      5 H           6.6782   -1.0267   -4.0911 H      402  DMS402      0.0000
      6 H           7.6459    0.2223   -4.9602 H      402  DMS402      0.0000
      7 H           8.1076   -1.5189   -5.0873 H      402  DMS402      0.0000
      8 H           5.2668   -2.8534   -5.3155 H      402  DMS402      0.0000
      9 H           6.7381   -3.2913   -6.2749 H      402  DMS402      0.0000
     10 H           5.1659   -2.9907   -7.1104 H      402  DMS402      0.0000
@<TRIPOS>BOND
     1     1     2    2
     2     1     3    1
     3     1     4    1
     4     3     5    1
     5     3     6    1
     6     3     7    1
     7     4     8    1
     8     4     9    1
     9     4    10    1

