DMS_1_A_402
  -ISIS-            3D

 10  9  0  0  0  0  0  0  0  0  1 V2000
    6.2020   -0.9680   -6.4270 S   0  0  0  0  0
    7.0850   -0.8700   -7.5900 O   0  0  0  0  0
    7.2540   -0.8140   -5.0150 C   0  0  0  0  0
    5.8130   -2.6790   -6.2650 C   0  0  0  0  0
    6.6782   -1.0267   -4.0911 H   0  0  0  0  0
    7.6459    0.2223   -4.9602 H   0  0  0  0  0
    8.1076   -1.5189   -5.0873 H   0  0  0  0  0
    5.2668   -2.8534   -5.3155 H   0  0  0  0  0
    6.7381   -3.2913   -6.2749 H   0  0  0  0  0
    5.1659   -2.9907   -7.1104 H   0  0  0  0  0
  1  2  2  0  0  0
  1  3  1  0  0  0
  1  4  1  0  0  0
  3  5  1  0  0  0
  3  6  1  0  0  0
  3  7  1  0  0  0
  4  8  1  0  0  0
  4  9  1  0  0  0
  4 10  1  0  0  0
M  END
$$$$
