DMS_2_A_401
  -ISIS-            3D

 10  9  0  0  0  0  0  0  0  0  1 V2000
   -7.0700  -28.1750  -21.4710 S   0  0  0  0  0
   -7.7550  -27.1310  -22.2220 O   0  0  0  0  0
   -5.7090  -28.6620  -22.4730 C   0  0  0  0  0
   -6.1760  -27.3010  -20.2350 C   0  0  0  0  0
   -5.0396  -29.3348  -21.8991 H   0  0  0  0  0
   -5.1356  -27.7742  -22.8110 H   0  0  0  0  0
   -6.0836  -29.2078  -23.3631 H   0  0  0  0  0
   -5.4931  -27.9940  -19.7023 H   0  0  0  0  0
   -6.8871  -26.8694  -19.5010 H   0  0  0  0  0
   -5.5841  -26.4790  -20.6881 H   0  0  0  0  0
  1  2  2  0  0  0
  1  3  1  0  0  0
  1  4  1  0  0  0
  3  5  1  0  0  0
  3  6  1  0  0  0
  3  7  1  0  0  0
  4  8  1  0  0  0
  4  9  1  0  0  0
  4 10  1  0  0  0
M  END
$$$$
