@<TRIPOS>MOLECULE
DMS_1_A_503
 10 9 0 0 0
SMALL
NO_CHARGES

@<TRIPOS>ATOM
      1 S          -0.5220    9.1510   -7.3530 S.o    503  DMS503      0.0000
      2 O          -0.3580   10.5650   -6.9680 O.2    503  DMS503      0.0000
      3 C1         -0.7320    9.2130   -9.0840 C.3    503  DMS503      0.0000
      4 C2         -2.2120    8.8190   -6.9710 C.3    503  DMS503      0.0000
      5 H          -1.0612    8.2239   -9.4627 H      503  DMS503      0.0000
      6 H           0.2362    9.4677   -9.5625 H      503  DMS503      0.0000
      7 H          -1.4804    9.9810   -9.3658 H      503  DMS503      0.0000
      8 H          -2.5107    7.8385   -7.3952 H      503  DMS503      0.0000
      9 H          -2.8719    9.6122   -7.3770 H      503  DMS503      0.0000
     10 H          -2.3371    8.7796   -5.8691 H      503  DMS503      0.0000
@<TRIPOS>BOND
     1     1     2    2
     2     1     3    1
     3     1     4    1
     4     3     5    1
     5     3     6    1
     6     3     7    1
     7     4     8    1
     8     4     9    1
     9     4    10    1

