BZX_1_A_201
  -ISIS-            3D

 16 17  0  0  0  0  0  0  0  0  1 V2000
  -48.9220  -29.1120    3.4650 C   0  0  0  0  0
  -47.5530  -29.0510    3.7000 C   0  0  0  0  0
  -47.0960  -29.0300    5.0050 C   0  0  0  0  0
  -47.9730  -29.0700    6.0750 C   0  0  0  0  0
  -49.3670  -29.1240    5.8370 C   0  0  0  0  0
  -49.8300  -29.1510    4.5540 C   0  0  0  0  0
  -51.1270  -29.2100    4.6020 O   0  0  0  0  0
  -51.5470  -29.5700    5.8930 C   0  0  0  0  0
  -50.4740  -29.1810    6.7130 O   0  0  0  0  0
  -46.6100  -29.0100    2.6450 O   0  0  0  0  0
  -49.3207  -29.1312    2.4373 H   0  0  0  0  0
  -46.0103  -28.9824    5.1948 H   0  0  0  0  0
  -47.5963  -29.0589    7.1110 H   0  0  0  0  0
  -51.7097  -30.6636    5.9590 H   0  0  0  0  0
  -52.4769  -29.0413    6.1734 H   0  0  0  0  0
  -47.0357  -29.0358    1.7997 H   0  0  0  0  0
  1  2  2  0  0  0
  1  6  1  0  0  0
  1 11  1  0  0  0
  2  3  1  0  0  0
  2 10  1  0  0  0
  3  4  2  0  0  0
  3 12  1  0  0  0
  4  5  1  0  0  0
  4 13  1  0  0  0
  5  6  2  0  0  0
  5  9  1  0  0  0
  6  7  1  0  0  0
  7  8  1  0  0  0
  8  9  1  0  0  0
  8 14  1  0  0  0
  8 15  1  0  0  0
 10 16  1  0  0  0
M  END
$$$$
