@<TRIPOS>MOLECULE
DMS_2_A_403
 10 9 0 0 0
SMALL
NO_CHARGES

@<TRIPOS>ATOM
      1 S          -2.3320  -19.0480   -8.1130 S.o    403  DMS403      0.0000
      2 O          -3.6420  -18.6620   -8.7760 O.2    403  DMS403      0.0000
      3 C1         -1.0560  -18.1080   -8.9200 C.3    403  DMS403      0.0000
      4 C2         -1.9230  -20.6430   -8.7950 C.3    403  DMS403      0.0000
      5 H          -0.0594  -18.4644   -8.5882 H      403  DMS403      0.0000
      6 H          -1.1627  -17.0379   -8.6482 H      403  DMS403      0.0000
      7 H          -1.1383  -18.2110  -10.0215 H      403  DMS403      0.0000
      8 H          -0.9036  -20.9390   -8.4732 H      403  DMS403      0.0000
      9 H          -1.9670  -20.6123   -9.9031 H      403  DMS403      0.0000
     10 H          -2.6484  -21.3962   -8.4249 H      403  DMS403      0.0000
@<TRIPOS>BOND
     1     1     2    2
     2     1     3    1
     3     1     4    1
     4     3     5    1
     5     3     6    1
     6     3     7    1
     7     4     8    1
     8     4     9    1
     9     4    10    1

