DMS_2_A_402
  -ISIS-            3D

 10  9  0  0  0  0  0  0  0  0  1 V2000
   -6.1100   -1.0760    6.2590 S   0  0  0  0  0
   -7.0990   -0.7990    7.3390 O   0  0  0  0  0
   -7.0160   -1.0440    4.7290 C   0  0  0  0  0
   -5.7960   -2.8130    6.2920 C   0  0  0  0  0
   -6.3631   -1.3783    3.8971 H   0  0  0  0  0
   -7.3514   -0.0067    4.5248 H   0  0  0  0  0
   -7.9052   -1.7048    4.7908 H   0  0  0  0  0
   -5.1741   -3.1014    5.4201 H   0  0  0  0  0
   -6.7488   -3.3813    6.2705 H   0  0  0  0  0
   -5.2465   -3.0682    7.2210 H   0  0  0  0  0
  1  2  2  0  0  0
  1  3  1  0  0  0
  1  4  1  0  0  0
  3  5  1  0  0  0
  3  6  1  0  0  0
  3  7  1  0  0  0
  4  8  1  0  0  0
  4  9  1  0  0  0
  4 10  1  0  0  0
M  END
$$$$
