@<TRIPOS>MOLECULE
DMS_1_A_401
 10 9 0 0 0
SMALL
NO_CHARGES

@<TRIPOS>ATOM
      1 S           6.9730  -27.9610   21.5050 S.o    401  DMS401      0.0000
      2 O           7.6860  -27.0000   22.3810 O.2    401  DMS401      0.0000
      3 C1          5.7220  -28.7080   22.5110 C.3    401  DMS401      0.0000
      4 C2          5.8950  -27.0090   20.4860 C.3    401  DMS401      0.0000
      5 H           5.0577  -29.3364   21.8833 H      401  DMS401      0.0000
      6 H           5.1191  -27.9300   23.0231 H      401  DMS401      0.0000
      7 H           6.2026  -29.3516   23.2760 H      401  DMS401      0.0000
      8 H           5.2278  -27.6814   19.9091 H      401  DMS401      0.0000
      9 H           6.4977  -26.4094   19.7736 H      401  DMS401      0.0000
     10 H           5.2813  -26.3216   21.1039 H      401  DMS401      0.0000
@<TRIPOS>BOND
     1     1     2    2
     2     1     3    1
     3     1     4    1
     4     3     5    1
     5     3     6    1
     6     3     7    1
     7     4     8    1
     8     4     9    1
     9     4    10    1

