@<TRIPOS>MOLECULE
LSA_1_A_201
 17 18 0 0 0
SMALL
NO_CHARGES

@<TRIPOS>ATOM
      1 C4        -46.6190  -35.6960   -1.5430 C.ar   201  LSA201      0.0000
      2 C5        -46.4380  -34.9550   -0.3740 C.ar   201  LSA201      0.0000
      3 C6        -45.4100  -34.0260   -0.2960 C.ar   201  LSA201      0.0000
      4 C7        -43.4330  -32.6750   -1.0240 C.2    201  LSA201      0.0000
      5 C3        -45.7700  -35.5080   -2.6410 C.ar   201  LSA201      0.0000
      6 S10       -44.9140  -33.0160    0.9830 S.o    201  LSA201      0.0000
      7 N9        -43.7060  -32.1780    0.3920 N.am   201  LSA201      0.0000
      8 O8        -42.6150  -32.3690   -1.8240 O.2    201  LSA201      0.0000
      9 C1        -44.5570  -33.8590   -1.4000 C.ar   201  LSA201      0.0000
     10 C2        -44.7360  -34.5730   -2.5760 C.ar   201  LSA201      0.0000
     11 O12       -45.9210  -32.0390    1.3340 O.2    201  LSA201      0.0000
     12 O11       -44.4250  -33.7990    2.0810 O.2    201  LSA201      0.0000
     13 H         -47.4363  -36.4345   -1.6032 H      201  LSA201      0.0000
     14 H         -47.1136  -35.1094    0.4841 H      201  LSA201      0.0000
     15 H         -45.9220  -36.0969   -3.5612 H      201  LSA201      0.0000
     16 H         -43.1762  -31.4382    0.8599 H      201  LSA201      0.0000
     17 H         -44.0691  -34.4067   -3.4372 H      201  LSA201      0.0000
@<TRIPOS>BOND
     1     1     2   ar
     2     1     5   ar
     3     1    13    1
     4     2     3   ar
     5     2    14    1
     6     3     6    1
     7     3     9   ar
     8     4     7    1
     9     4     8    2
    10     4     9    1
    11     5    10   ar
    12     5    15    1
    13     6     7    1
    14     6    11    2
    15     6    12    2
    16     7    16    1
    17     9    10   ar
    18    10    17    1

