@<TRIPOS>MOLECULE
G75_2_A_307
 72 74 0 0 0
SMALL
NO_CHARGES

@<TRIPOS>ATOM
      1 O88        28.7950   -3.5390  -25.1540 O.2    307  G75307      0.0000
      2 C84        29.4260   -3.7710  -26.1770 C.2    307  G75307      0.0000
      3 O86        30.8770   -3.6600  -26.0860 O.3    307  G75307      0.0000
      4 C3         31.4720   -3.2290  -24.8630 C.3    307  G75307      0.0000
      5 C5         31.2890   -1.7290  -24.7110 C.3    307  G75307      0.0000
      6 C82        28.7640   -4.1640  -27.5010 C.3    307  G75307      0.0000
      7 C63        27.5050   -3.3570  -27.8950 C.3    307  G75307      0.0000
      8 C57        27.7660   -1.8640  -27.7060 C.3    307  G75307      0.0000
      9 C59        26.4580   -1.0560  -27.6990 C.3    307  G75307      0.0000
     10 C61        26.7420    0.3580  -27.2230 C.3    307  G75307      0.0000
     11 C65        25.4960    1.1780  -27.0970 C.2    307  G75307      0.0000
     12 O66        24.6020    1.2140  -27.9250 O.2    307  G75307      0.0000
     13 N69        25.5480    1.8870  -25.9670 N.am   307  G75307      0.0000
     14 C71        26.7050    1.6500  -25.1140 C.3    307  G75307      0.0000
     15 C73        27.2610    0.3900  -25.7850 C.3    307  G75307      0.0000
     16 N49        28.5650   -1.4580  -28.8620 N.am   307  G75307      0.0000
     17 C39        29.7840   -0.9230  -28.7120 C.2    307  G75307      0.0000
     18 O47        30.2950   -0.6830  -27.6310 O.2    307  G75307      0.0000
     19 C37        30.5260   -0.5320  -29.9540 C.3    307  G75307      0.0000
     20 C41        31.6150   -1.4750  -30.4500 C.3    307  G75307      0.0000
     21 C51        31.9770   -0.7570  -31.7350 C.ar   307  G75307      0.0000
     22 C55        33.0770    0.1070  -31.8010 C.ar   307  G75307      0.0000
     23 C11        33.3840    0.7840  -32.9770 C.ar   307  G75307      0.0000
     24 C9         32.5670    0.6060  -34.0900 C.ar   307  G75307      0.0000
     25 C7         31.4640   -0.2390  -34.0290 C.ar   307  G75307      0.0000
     26 C53        31.1620   -0.9150  -32.8540 C.ar   307  G75307      0.0000
     27 N33        31.2810    0.6640  -29.6660 N.am   307  G75307      0.0000
     28 C31        30.6430    1.8080  -29.5510 C.2    307  G75307      0.0000
     29 O35        29.4310    1.8830  -29.6810 O.2    307  G75307      0.0000
     30 O1         31.4100    2.9940  -29.2130 O.3    307  G75307      0.0000
     31 C1         30.7470    4.1250  -28.6360 C.3    307  G75307      0.0000
     32 C2         30.3030    3.9620  -27.1900 C.ar   307  G75307      0.0000
     33 C4         29.4790    4.9480  -26.6390 C.ar   307  G75307      0.0000
     34 C6         29.0480    4.8600  -25.3140 C.ar   307  G75307      0.0000
     35 C8         29.4440    3.7780  -24.5230 C.ar   307  G75307      0.0000
     36 C12        30.2670    2.7860  -25.0660 C.ar   307  G75307      0.0000
     37 C10        30.6950    2.8760  -26.3950 C.ar   307  G75307      0.0000
     38 H          32.5558   -3.4694  -24.8761 H      307  G75307      0.0000
     39 H          31.0419   -3.7652  -23.9916 H      307  G75307      0.0000
     40 H          31.7427   -1.3640  -23.7639 H      307  G75307      0.0000
     41 H          30.2206   -1.4263  -24.6922 H      307  G75307      0.0000
     42 H          31.7805   -1.1716  -25.5371 H      307  G75307      0.0000
     43 H          28.4986   -5.2439  -27.4523 H      307  G75307      0.0000
     44 H          29.5215   -4.0707  -28.3111 H      307  G75307      0.0000
     45 H          26.6713   -3.6738  -27.2260 H      307  G75307      0.0000
     46 H          27.1857   -3.5965  -28.9346 H      307  G75307      0.0000
     47 H          28.2986   -1.6984  -26.7469 H      307  G75307      0.0000
     48 H          25.7168   -1.5344  -27.0181 H      307  G75307      0.0000
     49 H          26.0001   -1.0472  -28.7144 H      307  G75307      0.0000
     50 H          27.4507    0.8834  -27.9046 H      307  G75307      0.0000
     51 H          24.8021    2.5538  -25.7298 H      307  G75307      0.0000
     52 H          26.4364    1.4732  -24.0489 H      307  G75307      0.0000
     53 H          27.4242    2.4918  -25.1769 H      307  G75307      0.0000
     54 H          28.3734    0.3798  -25.7419 H      307  G75307      0.0000
     55 H          26.8974   -0.5008  -25.2212 H      307  G75307      0.0000
     56 H          28.1748   -1.5779  -29.8074 H      307  G75307      0.0000
     57 H          29.7773   -0.3472  -30.7607 H      307  G75307      0.0000
     58 H          31.2062   -2.4896  -30.6546 H      307  G75307      0.0000
     59 H          32.4676   -1.5818  -29.7439 H      307  G75307      0.0000
     60 H          33.7365    0.2513  -30.9287 H      307  G75307      0.0000
     61 H          34.2595    1.4532  -33.0272 H      307  G75307      0.0000
     62 H          32.7968    1.1398  -35.0281 H      307  G75307      0.0000
     63 H          30.8241   -0.3700  -34.9185 H      307  G75307      0.0000
     64 H          30.2795   -1.5769  -32.8232 H      307  G75307      0.0000
     65 H          32.2931    0.6612  -29.4941 H      307  G75307      0.0000
     66 H          29.8709    4.4058  -29.2575 H      307  G75307      0.0000
     67 H          31.4380    4.9931  -28.6805 H      307  G75307      0.0000
     68 H          29.1605    5.8094  -27.2510 H      307  G75307      0.0000
     69 H          28.3971    5.6443  -24.8913 H      307  G75307      0.0000
     70 H          29.1098    3.7067  -23.4738 H      307  G75307      0.0000
     71 H          30.5805    1.9283  -24.4466 H      307  G75307      0.0000
     72 H          31.3425    2.0846  -26.8068 H      307  G75307      0.0000
@<TRIPOS>BOND
     1     1     2    2
     2     2     3    1
     3     2     6    1
     4     3     4    1
     5     4     5    1
     6     4    38    1
     7     4    39    1
     8     5    40    1
     9     5    41    1
    10     5    42    1
    11     6     7    1
    12     6    43    1
    13     6    44    1
    14     7     8    1
    15     7    45    1
    16     7    46    1
    17     8     9    1
    18     8    16    1
    19     8    47    1
    20     9    10    1
    21     9    48    1
    22     9    49    1
    23    10    11    1
    24    10    15    1
    25    10    50    1
    26    11    12    2
    27    11    13    1
    28    13    14    1
    29    13    51    1
    30    14    15    1
    31    14    52    1
    32    14    53    1
    33    15    54    1
    34    15    55    1
    35    16    17    1
    36    16    56    1
    37    17    18    2
    38    17    19    1
    39    19    20    1
    40    19    27    1
    41    19    57    1
    42    20    21    1
    43    20    58    1
    44    20    59    1
    45    21    22   ar
    46    21    26   ar
    47    22    23   ar
    48    22    60    1
    49    23    24   ar
    50    23    61    1
    51    24    25   ar
    52    24    62    1
    53    25    26   ar
    54    25    63    1
    55    26    64    1
    56    27    28    1
    57    27    65    1
    58    28    29    2
    59    28    30    1
    60    30    31    1
    61    31    32    1
    62    31    66    1
    63    31    67    1
    64    32    33   ar
    65    32    37   ar
    66    33    34   ar
    67    33    68    1
    68    34    35   ar
    69    34    69    1
    70    35    36   ar
    71    35    70    1
    72    36    37   ar
    73    36    71    1
    74    37    72    1

