G75_2_A_307
  -ISIS-            3D

 72 74  0  0  0  0  0  0  0  0  1 V2000
   28.7950   -3.5390  -25.1540 O   0  0  0  0  0
   29.4260   -3.7710  -26.1770 C   0  0  0  0  0
   30.8770   -3.6600  -26.0860 O   0  0  0  0  0
   31.4720   -3.2290  -24.8630 C   0  0  0  0  0
   31.2890   -1.7290  -24.7110 C   0  0  0  0  0
   28.7640   -4.1640  -27.5010 C   0  0  0  0  0
   27.5050   -3.3570  -27.8950 C   0  0  0  0  0
   27.7660   -1.8640  -27.7060 C   0  0  0  0  0
   26.4580   -1.0560  -27.6990 C   0  0  0  0  0
   26.7420    0.3580  -27.2230 C   0  0  0  0  0
   25.4960    1.1780  -27.0970 C   0  0  0  0  0
   24.6020    1.2140  -27.9250 O   0  0  0  0  0
   25.5480    1.8870  -25.9670 N   0  0  0  0  0
   26.7050    1.6500  -25.1140 C   0  0  0  0  0
   27.2610    0.3900  -25.7850 C   0  0  0  0  0
   28.5650   -1.4580  -28.8620 N   0  0  0  0  0
   29.7840   -0.9230  -28.7120 C   0  0  0  0  0
   30.2950   -0.6830  -27.6310 O   0  0  0  0  0
   30.5260   -0.5320  -29.9540 C   0  0  0  0  0
   31.6150   -1.4750  -30.4500 C   0  0  0  0  0
   31.9770   -0.7570  -31.7350 C   0  0  0  0  0
   33.0770    0.1070  -31.8010 C   0  0  0  0  0
   33.3840    0.7840  -32.9770 C   0  0  0  0  0
   32.5670    0.6060  -34.0900 C   0  0  0  0  0
   31.4640   -0.2390  -34.0290 C   0  0  0  0  0
   31.1620   -0.9150  -32.8540 C   0  0  0  0  0
   31.2810    0.6640  -29.6660 N   0  0  0  0  0
   30.6430    1.8080  -29.5510 C   0  0  0  0  0
   29.4310    1.8830  -29.6810 O   0  0  0  0  0
   31.4100    2.9940  -29.2130 O   0  0  0  0  0
   30.7470    4.1250  -28.6360 C   0  0  0  0  0
   30.3030    3.9620  -27.1900 C   0  0  0  0  0
   29.4790    4.9480  -26.6390 C   0  0  0  0  0
   29.0480    4.8600  -25.3140 C   0  0  0  0  0
   29.4440    3.7780  -24.5230 C   0  0  0  0  0
   30.2670    2.7860  -25.0660 C   0  0  0  0  0
   30.6950    2.8760  -26.3950 C   0  0  0  0  0
   32.5558   -3.4694  -24.8761 H   0  0  0  0  0
   31.0419   -3.7652  -23.9916 H   0  0  0  0  0
   31.7427   -1.3640  -23.7639 H   0  0  0  0  0
   30.2206   -1.4263  -24.6922 H   0  0  0  0  0
   31.7805   -1.1716  -25.5371 H   0  0  0  0  0
   28.4986   -5.2439  -27.4523 H   0  0  0  0  0
   29.5215   -4.0707  -28.3111 H   0  0  0  0  0
   26.6713   -3.6738  -27.2260 H   0  0  0  0  0
   27.1857   -3.5965  -28.9346 H   0  0  0  0  0
   28.2986   -1.6984  -26.7469 H   0  0  0  0  0
   25.7168   -1.5344  -27.0181 H   0  0  0  0  0
   26.0001   -1.0472  -28.7144 H   0  0  0  0  0
   27.4507    0.8834  -27.9046 H   0  0  0  0  0
   24.8021    2.5538  -25.7298 H   0  0  0  0  0
   26.4364    1.4732  -24.0489 H   0  0  0  0  0
   27.4242    2.4918  -25.1769 H   0  0  0  0  0
   28.3734    0.3798  -25.7419 H   0  0  0  0  0
   26.8974   -0.5008  -25.2212 H   0  0  0  0  0
   28.1748   -1.5779  -29.8074 H   0  0  0  0  0
   29.7773   -0.3472  -30.7607 H   0  0  0  0  0
   31.2062   -2.4896  -30.6546 H   0  0  0  0  0
   32.4676   -1.5818  -29.7439 H   0  0  0  0  0
   33.7365    0.2513  -30.9287 H   0  0  0  0  0
   34.2595    1.4532  -33.0272 H   0  0  0  0  0
   32.7968    1.1398  -35.0281 H   0  0  0  0  0
   30.8241   -0.3700  -34.9185 H   0  0  0  0  0
   30.2795   -1.5769  -32.8232 H   0  0  0  0  0
   32.2931    0.6612  -29.4941 H   0  0  0  0  0
   29.8709    4.4058  -29.2575 H   0  0  0  0  0
   31.4380    4.9931  -28.6805 H   0  0  0  0  0
   29.1605    5.8094  -27.2510 H   0  0  0  0  0
   28.3971    5.6443  -24.8913 H   0  0  0  0  0
   29.1098    3.7067  -23.4738 H   0  0  0  0  0
   30.5805    1.9283  -24.4466 H   0  0  0  0  0
   31.3425    2.0846  -26.8068 H   0  0  0  0  0
  1  2  2  0  0  0
  2  3  1  0  0  0
  2  6  1  0  0  0
  3  4  1  0  0  0
  4  5  1  0  0  0
  4 38  1  0  0  0
  4 39  1  0  0  0
  5 40  1  0  0  0
  5 41  1  0  0  0
  5 42  1  0  0  0
  6  7  1  0  0  0
  6 43  1  0  0  0
  6 44  1  0  0  0
  7  8  1  0  0  0
  7 45  1  0  0  0
  7 46  1  0  0  0
  8  9  1  0  0  0
  8 16  1  0  0  0
  8 47  1  0  0  0
  9 10  1  0  0  0
  9 48  1  0  0  0
  9 49  1  0  0  0
 10 11  1  0  0  0
 10 15  1  0  0  0
 10 50  1  0  0  0
 11 12  2  0  0  0
 11 13  1  0  0  0
 13 14  1  0  0  0
 13 51  1  0  0  0
 14 15  1  0  0  0
 14 52  1  0  0  0
 14 53  1  0  0  0
 15 54  1  0  0  0
 15 55  1  0  0  0
 16 17  1  0  0  0
 16 56  1  0  0  0
 17 18  2  0  0  0
 17 19  1  0  0  0
 19 20  1  0  0  0
 19 27  1  0  0  0
 19 57  1  0  0  0
 20 21  1  0  0  0
 20 58  1  0  0  0
 20 59  1  0  0  0
 21 22  2  0  0  0
 21 26  1  0  0  0
 22 23  1  0  0  0
 22 60  1  0  0  0
 23 24  2  0  0  0
 23 61  1  0  0  0
 24 25  1  0  0  0
 24 62  1  0  0  0
 25 26  2  0  0  0
 25 63  1  0  0  0
 26 64  1  0  0  0
 27 28  1  0  0  0
 27 65  1  0  0  0
 28 29  2  0  0  0
 28 30  1  0  0  0
 30 31  1  0  0  0
 31 32  1  0  0  0
 31 66  1  0  0  0
 31 67  1  0  0  0
 32 33  2  0  0  0
 32 37  1  0  0  0
 33 34  1  0  0  0
 33 68  1  0  0  0
 34 35  2  0  0  0
 34 69  1  0  0  0
 35 36  1  0  0  0
 35 70  1  0  0  0
 36 37  2  0  0  0
 36 71  1  0  0  0
 37 72  1  0  0  0
M  END
$$$$
