@<TRIPOS>MOLECULE
G75_1_A_307
 72 74 0 0 0
SMALL
NO_CHARGES

@<TRIPOS>ATOM
      1 O88       -15.5750   -3.5390  -26.4080 O.2    307  G75307      0.0000
      2 C84       -16.2060   -3.7710  -25.3850 C.2    307  G75307      0.0000
      3 O86       -17.6570   -3.6600  -25.4760 O.3    307  G75307      0.0000
      4 C3        -18.2520   -3.2290  -26.6990 C.3    307  G75307      0.0000
      5 C5        -18.0690   -1.7290  -26.8510 C.3    307  G75307      0.0000
      6 C82       -15.5440   -4.1640  -24.0610 C.3    307  G75307      0.0000
      7 C63       -14.2850   -3.3570  -23.6670 C.3    307  G75307      0.0000
      8 C57       -14.5460   -1.8640  -23.8560 C.3    307  G75307      0.0000
      9 C59       -13.2380   -1.0560  -23.8630 C.3    307  G75307      0.0000
     10 C61       -13.5220    0.3580  -24.3390 C.3    307  G75307      0.0000
     11 C65       -12.2760    1.1780  -24.4650 C.2    307  G75307      0.0000
     12 O66       -11.3820    1.2140  -23.6370 O.2    307  G75307      0.0000
     13 N69       -12.3280    1.8870  -25.5950 N.am   307  G75307      0.0000
     14 C71       -13.4850    1.6500  -26.4480 C.3    307  G75307      0.0000
     15 C73       -14.0410    0.3900  -25.7770 C.3    307  G75307      0.0000
     16 N49       -15.3450   -1.4580  -22.7000 N.am   307  G75307      0.0000
     17 C39       -16.5640   -0.9230  -22.8500 C.2    307  G75307      0.0000
     18 O47       -17.0750   -0.6830  -23.9310 O.2    307  G75307      0.0000
     19 C37       -17.3060   -0.5320  -21.6080 C.3    307  G75307      0.0000
     20 C41       -18.3950   -1.4750  -21.1120 C.3    307  G75307      0.0000
     21 C51       -18.7570   -0.7570  -19.8270 C.ar   307  G75307      0.0000
     22 C55       -19.8570    0.1070  -19.7610 C.ar   307  G75307      0.0000
     23 C11       -20.1640    0.7840  -18.5850 C.ar   307  G75307      0.0000
     24 C9        -19.3470    0.6060  -17.4720 C.ar   307  G75307      0.0000
     25 C7        -18.2440   -0.2390  -17.5330 C.ar   307  G75307      0.0000
     26 C53       -17.9420   -0.9150  -18.7080 C.ar   307  G75307      0.0000
     27 N33       -18.0610    0.6640  -21.8960 N.am   307  G75307      0.0000
     28 C31       -17.4230    1.8080  -22.0110 C.2    307  G75307      0.0000
     29 O35       -16.2110    1.8830  -21.8810 O.2    307  G75307      0.0000
     30 O1        -18.1900    2.9940  -22.3490 O.3    307  G75307      0.0000
     31 C1        -17.5270    4.1250  -22.9260 C.3    307  G75307      0.0000
     32 C2        -17.0830    3.9620  -24.3720 C.ar   307  G75307      0.0000
     33 C4        -16.2590    4.9480  -24.9230 C.ar   307  G75307      0.0000
     34 C6        -15.8280    4.8600  -26.2480 C.ar   307  G75307      0.0000
     35 C8        -16.2240    3.7780  -27.0390 C.ar   307  G75307      0.0000
     36 C12       -17.0470    2.7860  -26.4960 C.ar   307  G75307      0.0000
     37 C10       -17.4750    2.8760  -25.1670 C.ar   307  G75307      0.0000
     38 H         -19.3358   -3.4694  -26.6859 H      307  G75307      0.0000
     39 H         -17.8219   -3.7652  -27.5704 H      307  G75307      0.0000
     40 H         -18.5227   -1.3640  -27.7981 H      307  G75307      0.0000
     41 H         -17.0006   -1.4263  -26.8698 H      307  G75307      0.0000
     42 H         -18.5605   -1.1716  -26.0249 H      307  G75307      0.0000
     43 H         -15.2786   -5.2439  -24.1097 H      307  G75307      0.0000
     44 H         -16.3015   -4.0707  -23.2509 H      307  G75307      0.0000
     45 H         -13.4513   -3.6738  -24.3360 H      307  G75307      0.0000
     46 H         -13.9657   -3.5965  -22.6274 H      307  G75307      0.0000
     47 H         -15.0786   -1.6984  -24.8151 H      307  G75307      0.0000
     48 H         -12.4968   -1.5344  -24.5439 H      307  G75307      0.0000
     49 H         -12.7801   -1.0472  -22.8476 H      307  G75307      0.0000
     50 H         -14.2307    0.8834  -23.6574 H      307  G75307      0.0000
     51 H         -11.5821    2.5538  -25.8322 H      307  G75307      0.0000
     52 H         -13.2164    1.4732  -27.5131 H      307  G75307      0.0000
     53 H         -14.2042    2.4918  -26.3851 H      307  G75307      0.0000
     54 H         -15.1534    0.3798  -25.8201 H      307  G75307      0.0000
     55 H         -13.6774   -0.5008  -26.3408 H      307  G75307      0.0000
     56 H         -14.9548   -1.5779  -21.7546 H      307  G75307      0.0000
     57 H         -16.5573   -0.3472  -20.8013 H      307  G75307      0.0000
     58 H         -17.9862   -2.4896  -20.9074 H      307  G75307      0.0000
     59 H         -19.2476   -1.5818  -21.8181 H      307  G75307      0.0000
     60 H         -20.5165    0.2513  -20.6333 H      307  G75307      0.0000
     61 H         -21.0395    1.4532  -18.5348 H      307  G75307      0.0000
     62 H         -19.5768    1.1398  -16.5339 H      307  G75307      0.0000
     63 H         -17.6041   -0.3700  -16.6435 H      307  G75307      0.0000
     64 H         -17.0595   -1.5769  -18.7388 H      307  G75307      0.0000
     65 H         -19.0731    0.6612  -22.0679 H      307  G75307      0.0000
     66 H         -16.6509    4.4058  -22.3045 H      307  G75307      0.0000
     67 H         -18.2180    4.9931  -22.8815 H      307  G75307      0.0000
     68 H         -15.9405    5.8094  -24.3110 H      307  G75307      0.0000
     69 H         -15.1771    5.6443  -26.6707 H      307  G75307      0.0000
     70 H         -15.8898    3.7067  -28.0882 H      307  G75307      0.0000
     71 H         -17.3605    1.9283  -27.1154 H      307  G75307      0.0000
     72 H         -18.1225    2.0846  -24.7552 H      307  G75307      0.0000
@<TRIPOS>BOND
     1     1     2    2
     2     2     3    1
     3     2     6    1
     4     3     4    1
     5     4     5    1
     6     4    38    1
     7     4    39    1
     8     5    40    1
     9     5    41    1
    10     5    42    1
    11     6     7    1
    12     6    43    1
    13     6    44    1
    14     7     8    1
    15     7    45    1
    16     7    46    1
    17     8     9    1
    18     8    16    1
    19     8    47    1
    20     9    10    1
    21     9    48    1
    22     9    49    1
    23    10    11    1
    24    10    15    1
    25    10    50    1
    26    11    12    2
    27    11    13    1
    28    13    14    1
    29    13    51    1
    30    14    15    1
    31    14    52    1
    32    14    53    1
    33    15    54    1
    34    15    55    1
    35    16    17    1
    36    16    56    1
    37    17    18    2
    38    17    19    1
    39    19    20    1
    40    19    27    1
    41    19    57    1
    42    20    21    1
    43    20    58    1
    44    20    59    1
    45    21    22   ar
    46    21    26   ar
    47    22    23   ar
    48    22    60    1
    49    23    24   ar
    50    23    61    1
    51    24    25   ar
    52    24    62    1
    53    25    26   ar
    54    25    63    1
    55    26    64    1
    56    27    28    1
    57    27    65    1
    58    28    29    2
    59    28    30    1
    60    30    31    1
    61    31    32    1
    62    31    66    1
    63    31    67    1
    64    32    33   ar
    65    32    37   ar
    66    33    34   ar
    67    33    68    1
    68    34    35   ar
    69    34    69    1
    70    35    36   ar
    71    35    70    1
    72    36    37   ar
    73    36    71    1
    74    37    72    1

