@<TRIPOS>MOLECULE
BDF_1_B_4403
 24 24 0 0 0
SMALL
NO_CHARGES

@<TRIPOS>ATOM
      1 C1         64.0710   20.3670   19.6930 C.3   4403  BDF4403      0.0000
      2 C2         64.4200   21.3230   20.8250 C.3   4403  BDF4403      0.0000
      3 C3         65.9310   21.5940   20.9120 C.3   4403  BDF4403      0.0000
      4 C4         66.2440   22.4570   22.1290 C.3   4403  BDF4403      0.0000
      5 C5         65.7000   21.8080   23.3910 C.3   4403  BDF4403      0.0000
      6 C6         64.2290   21.4760   23.2150 C.3   4403  BDF4403      0.0000
      7 O1         64.8540   19.1840   19.7630 O.3   4403  BDF4403      0.0000
      8 O2         63.7520   22.5450   20.6350 O.3   4403  BDF4403      0.0000
      9 O3         66.3660   22.2370   19.7210 O.3   4403  BDF4403      0.0000
     10 O4         67.6550   22.6480   22.2370 O.3   4403  BDF4403      0.0000
     11 O5         66.4180   20.6070   23.6830 O.3   4403  BDF4403      0.0000
     12 O6         63.9930   20.6910   22.0320 O.3   4403  BDF4403      0.0000
     13 H          64.2184   20.8555   18.7073 H     4403  BDF4403      0.0000
     14 H          63.0002   20.0828   19.7423 H     4403  BDF4403      0.0000
     15 H          66.4747   20.6315   21.0094 H     4403  BDF4403      0.0000
     16 H          65.7684   23.4536   22.0033 H     4403  BDF4403      0.0000
     17 H          65.8201   22.5070   24.2467 H     4403  BDF4403      0.0000
     18 H          63.6239   22.4051   23.1707 H     4403  BDF4403      0.0000
     19 H          63.8542   20.9116   24.0940 H     4403  BDF4403      0.0000
     20 H          65.5796   19.2725   19.1583 H     4403  BDF4403      0.0000
     21 H          62.8192   22.3842   20.5809 H     4403  BDF4403      0.0000
     22 H          67.1984   22.6483   19.9233 H     4403  BDF4403      0.0000
     23 H          67.9865   21.9435   22.7827 H     4403  BDF4403      0.0000
     24 H          65.9863   19.8891   23.2345 H     4403  BDF4403      0.0000
@<TRIPOS>BOND
     1     1     2    1
     2     1     7    1
     3     1    13    1
     4     1    14    1
     5     2     3    1
     6     2     8    1
     7     2    12    1
     8     3     4    1
     9     3     9    1
    10     3    15    1
    11     4     5    1
    12     4    10    1
    13     4    16    1
    14     5     6    1
    15     5    11    1
    16     5    17    1
    17     6    12    1
    18     6    18    1
    19     6    19    1
    20     7    20    1
    21     8    21    1
    22     9    22    1
    23    10    23    1
    24    11    24    1

