DMS_1_A_402
  -ISIS-            3D

 10  9  0  0  0  0  0  0  0  0  1 V2000
  -12.5020   12.9860   63.0220 S   0  0  0  0  0
  -13.7790   12.3140   63.3550 O   0  0  0  0  0
  -12.0010   13.8030   64.4990 C   0  0  0  0  0
  -11.2710   11.7210   63.0130 C   0  0  0  0  0
  -10.9773   14.2120   64.3758 H   0  0  0  0  0
  -12.0157   13.1003   65.3573 H   0  0  0  0  0
  -12.6960   14.6416   64.7092 H   0  0  0  0  0
  -10.2635   12.1754   62.9187 H   0  0  0  0  0
  -11.4413   11.0492   62.1468 H   0  0  0  0  0
  -11.3201   11.1237   63.9465 H   0  0  0  0  0
  1  2  2  0  0  0
  1  3  1  0  0  0
  1  4  1  0  0  0
  3  5  1  0  0  0
  3  6  1  0  0  0
  3  7  1  0  0  0
  4  8  1  0  0  0
  4  9  1  0  0  0
  4 10  1  0  0  0
M  END
$$$$
