DMS_1_A_406
  -ISIS-            3D

 10  9  0  0  0  0  0  0  0  0  1 V2000
  -30.9660   14.7580   47.2000 S   0  0  0  0  0
  -30.5940   13.6300   46.3090 O   0  0  0  0  0
  -30.0430   16.2550   46.7250 C   0  0  0  0  0
  -30.1510   14.4140   48.7960 C   0  0  0  0  0
  -30.2269   17.0558   47.4701 H   0  0  0  0  0
  -30.3902   16.5960   45.7283 H   0  0  0  0  0
  -28.9578   16.0298   46.6788 H   0  0  0  0  0
  -30.3154   15.2661   49.4868 H   0  0  0  0  0
  -29.0628   14.2653   48.6399 H   0  0  0  0  0
  -30.5881   13.4956   49.2388 H   0  0  0  0  0
  1  2  2  0  0  0
  1  3  1  0  0  0
  1  4  1  0  0  0
  3  5  1  0  0  0
  3  6  1  0  0  0
  3  7  1  0  0  0
  4  8  1  0  0  0
  4  9  1  0  0  0
  4 10  1  0  0  0
M  END
$$$$
