DMS_2_A_406
  -ISIS-            3D

 10  9  0  0  0  0  0  0  0  0  1 V2000
  -12.4850   14.7580   46.4930 S   0  0  0  0  0
  -12.8570   13.6300   47.3840 O   0  0  0  0  0
  -13.4080   16.2550   46.9680 C   0  0  0  0  0
  -13.3000   14.4140   44.8970 C   0  0  0  0  0
  -13.2241   17.0558   46.2229 H   0  0  0  0  0
  -13.0608   16.5960   47.9647 H   0  0  0  0  0
  -14.4932   16.0298   47.0142 H   0  0  0  0  0
  -13.1356   15.2661   44.2062 H   0  0  0  0  0
  -14.3882   14.2653   45.0531 H   0  0  0  0  0
  -12.8629   13.4956   44.4542 H   0  0  0  0  0
  1  2  2  0  0  0
  1  3  1  0  0  0
  1  4  1  0  0  0
  3  5  1  0  0  0
  3  6  1  0  0  0
  3  7  1  0  0  0
  4  8  1  0  0  0
  4  9  1  0  0  0
  4 10  1  0  0  0
M  END
$$$$
