DMS_1_A_405
  -ISIS-            3D

 10  9  0  0  0  0  0  0  0  0  1 V2000
  -13.7810    9.3640   72.9110 S   0  0  0  0  0
  -14.0840    8.4760   74.0680 O   0  0  0  0  0
  -14.7130    8.7310   71.5430 C   0  0  0  0  0
  -12.1730    8.9120   72.3250 C   0  0  0  0  0
  -14.4291    9.2655   70.6136 H   0  0  0  0  0
  -15.7945    8.8908   71.7306 H   0  0  0  0  0
  -14.5261    7.6447   71.4163 H   0  0  0  0  0
  -11.9534    9.4443   71.3770 H   0  0  0  0  0
  -12.1158    7.8170   72.1557 H   0  0  0  0  0
  -11.4131    9.1995   73.0802 H   0  0  0  0  0
  1  2  2  0  0  0
  1  3  1  0  0  0
  1  4  1  0  0  0
  3  5  1  0  0  0
  3  6  1  0  0  0
  3  7  1  0  0  0
  4  8  1  0  0  0
  4  9  1  0  0  0
  4 10  1  0  0  0
M  END
$$$$
