DMS_2_A_404
  -ISIS-            3D

 10  9  0  0  0  0  0  0  0  0  1 V2000
  -17.4280    3.7040   55.4150 S   0  0  0  0  0
  -17.6840    3.0300   54.0970 O   0  0  0  0  0
  -17.6390    5.5170   55.3540 C   0  0  0  0  0
  -15.6480    3.6230   55.7190 C   0  0  0  0  0
  -17.3527    5.9567   56.3312 H   0  0  0  0  0
  -18.7023    5.7522   55.1434 H   0  0  0  0  0
  -17.0022    5.9416   54.5511 H   0  0  0  0  0
  -15.4101    4.1343   56.6741 H   0  0  0  0  0
  -15.1005    4.1134   54.8882 H   0  0  0  0  0
  -15.3357    2.5609   55.7875 H   0  0  0  0  0
  1  2  2  0  0  0
  1  3  1  0  0  0
  1  4  1  0  0  0
  3  5  1  0  0  0
  3  6  1  0  0  0
  3  7  1  0  0  0
  4  8  1  0  0  0
  4  9  1  0  0  0
  4 10  1  0  0  0
M  END
$$$$
