@<TRIPOS>MOLECULE
EDO_1_A_304
 10 9 0 0 0
SMALL
NO_CHARGES

@<TRIPOS>ATOM
      1 C1        -66.1790   61.6790   -5.8550 C.3    304  EDO304      0.0000
      2 O1        -65.0280   60.8810   -6.1030 O.3    304  EDO304      0.0000
      3 C2        -66.6890   61.6500   -4.4410 C.3    304  EDO304      0.0000
      4 O2        -68.0360   62.0620   -4.2890 O.3    304  EDO304      0.0000
      5 H         -66.9789   61.3121   -6.5325 H      304  EDO304      0.0000
      6 H         -65.9783   62.7261   -6.1673 H      304  EDO304      0.0000
      7 H         -64.2779   61.3073   -5.7099 H      304  EDO304      0.0000
      8 H         -66.0498   62.2934   -3.8010 H      304  EDO304      0.0000
      9 H         -66.5894   60.6210   -4.0327 H      304  EDO304      0.0000
     10 H         -68.6009   61.3792   -4.6262 H      304  EDO304      0.0000
@<TRIPOS>BOND
     1     1     2    1
     2     1     3    1
     3     1     5    1
     4     1     6    1
     5     2     7    1
     6     3     4    1
     7     3     8    1
     8     3     9    1
     9     4    10    1

