@<TRIPOS>MOLECULE
EDO_1_A_305
 10 9 0 0 0
SMALL
NO_CHARGES

@<TRIPOS>ATOM
      1 C1        -58.8650   82.7610   -2.4850 C.3    305  EDO305      0.0000
      2 O1        -59.5750   82.2220   -1.3790 O.3    305  EDO305      0.0000
      3 C2        -59.6670   83.6180   -3.4080 C.3    305  EDO305      0.0000
      4 O2        -59.1530   83.7320   -4.7250 O.3    305  EDO305      0.0000
      5 H         -58.4644   81.9003   -3.0616 H      305  EDO305      0.0000
      6 H         -57.9747   83.3167   -2.1210 H      305  EDO305      0.0000
      7 H         -59.7005   82.9097   -0.7386 H      305  EDO305      0.0000
      8 H         -59.7806   84.6330   -2.9708 H      305  EDO305      0.0000
      9 H         -60.6934   83.1963   -3.4791 H      305  EDO305      0.0000
     10 H         -59.7622   84.2394   -5.2456 H      305  EDO305      0.0000
@<TRIPOS>BOND
     1     1     2    1
     2     1     3    1
     3     1     5    1
     4     1     6    1
     5     2     7    1
     6     3     4    1
     7     3     8    1
     8     3     9    1
     9     4    10    1

