EDO_1_A_305
  -ISIS-            3D

 10  9  0  0  0  0  0  0  0  0  1 V2000
  -58.8650   82.7610   -2.4850 C   0  0  0  0  0
  -59.5750   82.2220   -1.3790 O   0  0  0  0  0
  -59.6670   83.6180   -3.4080 C   0  0  0  0  0
  -59.1530   83.7320   -4.7250 O   0  0  0  0  0
  -58.4644   81.9003   -3.0616 H   0  0  0  0  0
  -57.9747   83.3167   -2.1210 H   0  0  0  0  0
  -59.7005   82.9097   -0.7386 H   0  0  0  0  0
  -59.7806   84.6330   -2.9708 H   0  0  0  0  0
  -60.6934   83.1963   -3.4791 H   0  0  0  0  0
  -59.7622   84.2394   -5.2456 H   0  0  0  0  0
  1  2  1  0  0  0
  1  3  1  0  0  0
  1  5  1  0  0  0
  1  6  1  0  0  0
  2  7  1  0  0  0
  3  4  1  0  0  0
  3  8  1  0  0  0
  3  9  1  0  0  0
  4 10  1  0  0  0
M  END
$$$$
