AR6_1_A_201
  -ISIS-            3D

 58 61  0  0  0  0  0  0  0  0  1 V2000
  -14.9610   -1.6320    4.0680 N   0  0  0  0  0
  -14.6990   -0.4480    3.5100 C   0  0  0  0  0
  -14.5600   -0.1920    2.2090 N   0  0  0  0  0
  -14.7530   -1.2780    1.4360 C   0  0  0  0  0
  -15.0640   -2.5530    1.8980 C   0  0  0  0  0
  -15.1660   -2.7060    3.2860 C   0  0  0  0  0
  -15.4770   -3.9110    3.8890 N   0  0  0  0  0
  -15.2030   -3.4110    0.8280 N   0  0  0  0  0
  -14.9890   -2.6590   -0.2410 C   0  0  0  0  0
  -14.6930   -1.3740    0.0920 N   0  0  0  0  0
  -18.0560   -1.4710   -3.6700 P   0  0  0  0  0
  -19.6360    0.1610   -5.5610 P   0  0  0  0  0
  -14.3950   -0.2410   -0.7900 C   0  0  0  0  0
  -17.6400   -2.4280   -4.7440 O   0  0  0  0  0
  -18.4200    0.4020   -6.3980 O   0  0  0  0  0
  -21.6190   -4.5820   -4.2930 C   0  0  0  0  0
  -21.3410   -5.6920   -4.9690 O   0  0  0  0  0
  -13.9390   -0.5030   -2.1070 C   0  0  0  0  0
  -12.5160   -0.7320   -2.0480 O   0  0  0  0  0
  -18.4990   -2.0300   -2.3650 O   0  0  0  0  0
  -20.5440    1.2900   -5.2440 O   0  0  0  0  0
  -23.1020   -4.0770   -4.3410 C   0  0  0  0  0
  -24.0050   -5.1800   -4.0260 O   0  0  0  0  0
  -14.3470    0.7460   -2.9140 C   0  0  0  0  0
  -13.4030    1.7900   -2.7880 O   0  0  0  0  0
  -19.2190   -0.4760   -4.1340 O   0  0  0  0  0
  -23.2700   -3.4400   -5.5360 C   0  0  0  0  0
  -23.7450   -4.3070   -6.6160 O   0  0  0  0  0
  -15.6450    1.1530   -2.1620 C   0  0  0  0  0
  -15.6720    0.5110   -0.9440 O   0  0  0  0  0
  -21.8310   -2.9000   -5.8810 C   0  0  0  0  0
  -20.9610   -3.4400   -4.9490 O   0  0  0  0  0
  -16.9400    0.8080   -2.9320 C   0  0  0  0  0
  -16.7930   -0.4970   -3.4560 O   0  0  0  0  0
  -21.7060   -1.4080   -5.7510 C   0  0  0  0  0
  -20.4360   -1.0320   -6.2540 O   0  0  0  0  0
  -14.5537    0.4012    4.1988 H   0  0  0  0  0
  -15.6273   -4.7050    3.2521 H   0  0  0  0  0
  -15.5278   -3.8965    4.9151 H   0  0  0  0  0
  -15.0230   -2.9886   -1.2864 H   0  0  0  0  0
  -13.6727    0.4259   -0.2677 H   0  0  0  0  0
  -21.2726   -4.6689   -3.2434 H   0  0  0  0  0
  -20.4020   -5.8177   -4.9899 H   0  0  0  0  0
  -14.4368   -1.3874   -2.5514 H   0  0  0  0  0
  -12.0956    0.0977   -2.2465 H   0  0  0  0  0
  -23.2061   -3.3277   -3.5240 H   0  0  0  0  0
  -23.5561   -5.9769   -4.2870 H   0  0  0  0  0
  -14.5185    0.5020   -3.9825 H   0  0  0  0  0
  -13.5484    2.4208   -3.4802 H   0  0  0  0  0
  -23.9861   -2.5952   -5.4410 H   0  0  0  0  0
  -24.4314   -4.8493   -6.2466 H   0  0  0  0  0
  -15.6410    2.2499   -1.9826 H   0  0  0  0  0
  -21.5460   -3.2250   -6.9038 H   0  0  0  0  0
  -17.0880    1.5232   -3.7678 H   0  0  0  0  0
  -17.8179    0.8869   -2.2571 H   0  0  0  0  0
  -21.8471   -1.0968   -4.6945 H   0  0  0  0  0
  -22.4893   -0.9007   -6.3522 H   0  0  0  0  0
  -16.8371   -3.1256   -4.3583 H   0  0  0  0  0
  1  2  2  0  0  0
  1  6  1  0  0  0
  2  3  1  0  0  0
  2 37  1  0  0  0
  3  4  2  0  0  0
  4  5  1  0  0  0
  4 10  1  0  0  0
  5  6  2  0  0  0
  5  8  1  0  0  0
  6  7  1  0  0  0
  7 38  1  0  0  0
  7 39  1  0  0  0
  8  9  2  0  0  0
  9 10  1  0  0  0
  9 40  1  0  0  0
 10 13  1  0  0  0
 11 14  1  0  0  0
 11 20  2  0  0  0
 11 26  1  0  0  0
 11 34  1  0  0  0
 12 15  2  0  0  0
 12 21  2  0  0  0
 12 26  1  0  0  0
 12 36  1  0  0  0
 13 18  1  0  0  0
 13 30  1  0  0  0
 13 41  1  0  0  0
 16 17  1  0  0  0
 16 22  1  0  0  0
 16 32  1  0  0  0
 16 42  1  0  0  0
 17 43  1  0  0  0
 18 19  1  0  0  0
 18 24  1  0  0  0
 18 44  1  0  0  0
 19 45  1  0  0  0
 22 23  1  0  0  0
 22 27  1  0  0  0
 22 46  1  0  0  0
 23 47  1  0  0  0
 24 25  1  0  0  0
 24 29  1  0  0  0
 24 48  1  0  0  0
 25 49  1  0  0  0
 27 28  1  0  0  0
 27 31  1  0  0  0
 27 50  1  0  0  0
 28 51  1  0  0  0
 29 30  1  0  0  0
 29 33  1  0  0  0
 29 52  1  0  0  0
 31 32  1  0  0  0
 31 35  1  0  0  0
 31 53  1  0  0  0
 33 34  1  0  0  0
 33 54  1  0  0  0
 33 55  1  0  0  0
 35 36  1  0  0  0
 35 56  1  0  0  0
 35 57  1  0  0  0
 14 58  1  0  0  0
M  END
$$$$
