@<TRIPOS>MOLECULE
AR6_1_A_201
 58 61 0 0 0
SMALL
NO_CHARGES

@<TRIPOS>ATOM
      1 N1        -14.9610   -1.6320    4.0680 N.ar   201  AR6201      0.0000
      2 C2        -14.6990   -0.4480    3.5100 C.ar   201  AR6201      0.0000
      3 N3        -14.5600   -0.1920    2.2090 N.ar   201  AR6201      0.0000
      4 C4        -14.7530   -1.2780    1.4360 C.ar   201  AR6201      0.0000
      5 C5        -15.0640   -2.5530    1.8980 C.ar   201  AR6201      0.0000
      6 C6        -15.1660   -2.7060    3.2860 C.ar   201  AR6201      0.0000
      7 N6        -15.4770   -3.9110    3.8890 N.3    201  AR6201      0.0000
      8 N7        -15.2030   -3.4110    0.8280 N.ar   201  AR6201      0.0000
      9 C8        -14.9890   -2.6590   -0.2410 C.ar   201  AR6201      0.0000
     10 N9        -14.6930   -1.3740    0.0920 N.ar   201  AR6201      0.0000
     11 PA        -18.0560   -1.4710   -3.6700 P.3    201  AR6201      0.0000
     12 PB        -19.6360    0.1610   -5.5610 P.3    201  AR6201      0.0000
     13 C1'       -14.3950   -0.2410   -0.7900 C.3    201  AR6201      0.0000
     14 O1A       -17.6400   -2.4280   -4.7440 O.co2  201  AR6201      0.0000
     15 O1B       -18.4200    0.4020   -6.3980 O.co2  201  AR6201      0.0000
     16 C1D       -21.6190   -4.5820   -4.2930 C.3    201  AR6201      0.0000
     17 O1D       -21.3410   -5.6920   -4.9690 O.3    201  AR6201      0.0000
     18 C2'       -13.9390   -0.5030   -2.1070 C.3    201  AR6201      0.0000
     19 O2'       -12.5160   -0.7320   -2.0480 O.3    201  AR6201      0.0000
     20 O2A       -18.4990   -2.0300   -2.3650 O.co2  201  AR6201      0.0000
     21 O2B       -20.5440    1.2900   -5.2440 O.co2  201  AR6201      0.0000
     22 C2D       -23.1020   -4.0770   -4.3410 C.3    201  AR6201      0.0000
     23 O2D       -24.0050   -5.1800   -4.0260 O.3    201  AR6201      0.0000
     24 C3'       -14.3470    0.7460   -2.9140 C.3    201  AR6201      0.0000
     25 O3'       -13.4030    1.7900   -2.7880 O.3    201  AR6201      0.0000
     26 O3A       -19.2190   -0.4760   -4.1340 O.3    201  AR6201      0.0000
     27 C3D       -23.2700   -3.4400   -5.5360 C.3    201  AR6201      0.0000
     28 O3D       -23.7450   -4.3070   -6.6160 O.3    201  AR6201      0.0000
     29 C4'       -15.6450    1.1530   -2.1620 C.3    201  AR6201      0.0000
     30 O4'       -15.6720    0.5110   -0.9440 O.3    201  AR6201      0.0000
     31 C4D       -21.8310   -2.9000   -5.8810 C.3    201  AR6201      0.0000
     32 O4D       -20.9610   -3.4400   -4.9490 O.3    201  AR6201      0.0000
     33 C5'       -16.9400    0.8080   -2.9320 C.3    201  AR6201      0.0000
     34 O5'       -16.7930   -0.4970   -3.4560 O.3    201  AR6201      0.0000
     35 C5D       -21.7060   -1.4080   -5.7510 C.3    201  AR6201      0.0000
     36 O5D       -20.4360   -1.0320   -6.2540 O.3    201  AR6201      0.0000
     37 H         -14.5537    0.4012    4.1988 H      201  AR6201      0.0000
     38 H         -15.6273   -4.7050    3.2521 H      201  AR6201      0.0000
     39 H         -15.5278   -3.8965    4.9151 H      201  AR6201      0.0000
     40 H         -15.0230   -2.9886   -1.2864 H      201  AR6201      0.0000
     41 H         -13.6727    0.4259   -0.2677 H      201  AR6201      0.0000
     42 H         -21.2726   -4.6689   -3.2434 H      201  AR6201      0.0000
     43 H         -20.4020   -5.8177   -4.9899 H      201  AR6201      0.0000
     44 H         -14.4368   -1.3874   -2.5514 H      201  AR6201      0.0000
     45 H         -12.0956    0.0977   -2.2465 H      201  AR6201      0.0000
     46 H         -23.2061   -3.3277   -3.5240 H      201  AR6201      0.0000
     47 H         -23.5561   -5.9769   -4.2870 H      201  AR6201      0.0000
     48 H         -14.5185    0.5020   -3.9825 H      201  AR6201      0.0000
     49 H         -13.5484    2.4208   -3.4802 H      201  AR6201      0.0000
     50 H         -23.9861   -2.5952   -5.4410 H      201  AR6201      0.0000
     51 H         -24.4314   -4.8493   -6.2466 H      201  AR6201      0.0000
     52 H         -15.6410    2.2499   -1.9826 H      201  AR6201      0.0000
     53 H         -21.5460   -3.2250   -6.9038 H      201  AR6201      0.0000
     54 H         -17.0880    1.5232   -3.7678 H      201  AR6201      0.0000
     55 H         -17.8179    0.8869   -2.2571 H      201  AR6201      0.0000
     56 H         -21.8471   -1.0968   -4.6945 H      201  AR6201      0.0000
     57 H         -22.4893   -0.9007   -6.3522 H      201  AR6201      0.0000
     58 H         -16.8371   -3.1256   -4.3583 H      201  AR6201      0.0000
@<TRIPOS>BOND
     1     1     2   ar
     2     1     6   ar
     3     2     3   ar
     4     2    37    1
     5     3     4   ar
     6     4     5   ar
     7     4    10   ar
     8     5     6   ar
     9     5     8   ar
    10     6     7    1
    11     7    38    1
    12     7    39    1
    13     8     9   ar
    14     9    10   ar
    15     9    40    1
    16    10    13    1
    17    11    14    1
    18    11    20    2
    19    11    26    1
    20    11    34    1
    21    12    15    2
    22    12    21    2
    23    12    26    1
    24    12    36    1
    25    13    18    1
    26    13    30    1
    27    13    41    1
    28    16    17    1
    29    16    22    1
    30    16    32    1
    31    16    42    1
    32    17    43    1
    33    18    19    1
    34    18    24    1
    35    18    44    1
    36    19    45    1
    37    22    23    1
    38    22    27    1
    39    22    46    1
    40    23    47    1
    41    24    25    1
    42    24    29    1
    43    24    48    1
    44    25    49    1
    45    27    28    1
    46    27    31    1
    47    27    50    1
    48    28    51    1
    49    29    30    1
    50    29    33    1
    51    29    52    1
    52    31    32    1
    53    31    35    1
    54    31    53    1
    55    33    34    1
    56    33    54    1
    57    33    55    1
    58    35    36    1
    59    35    56    1
    60    35    57    1
    61    14    58    1

