GTA_1_A_301
  -ISIS-            3D

 79 84  0  0  0  0  0  0  0  0  1 V2000
   70.7800  -59.6230  -18.5080 N   0  0  0  0  0
   70.5930  -57.0990  -14.7050 O   0  0  0  0  0
   69.9840  -57.8360  -15.4710 C   0  0  0  0  0
   68.6610  -58.2600  -15.3920 C   0  0  0  0  0
   67.6450  -57.9990  -14.4710 N   0  0  0  0  0
   67.7440  -57.1620  -13.2790 C   0  0  0  0  0
   66.5520  -58.6490  -14.8650 C   0  0  0  0  0
   66.7920  -59.3220  -15.9690 N   0  0  0  0  0
   68.1230  -59.1000  -16.3350 C   0  0  0  0  0
   68.7560  -59.6030  -17.4080 N   0  0  0  0  0
   70.0140  -59.2070  -17.4960 C   0  0  0  0  0
   70.6000  -58.3710  -16.5810 N   0  0  0  0  0
   64.5670  -63.2440  -15.2120 O   0  0  0  0  0
   65.8150  -60.1580  -16.7050 C   0  0  0  0  0
   65.9970  -61.6440  -16.4190 C   0  0  0  0  0
   64.9800  -61.8900  -15.3240 C   0  0  0  0  0
   63.8250  -60.9840  -15.7690 C   0  0  0  0  0
   62.8740  -60.5370  -14.6830 C   0  0  0  0  0
   64.4860  -59.8240  -16.3420 O   0  0  0  0  0
   65.6620  -62.3530  -17.5880 O   0  0  0  0  0
   63.1960  -59.8270  -12.1430 P   0  0  0  0  0
   62.2180  -58.7450  -11.8250 O   0  0  0  0  0
   62.8510  -61.2370  -11.8040 O   0  0  0  0  0
   64.5910  -59.4470  -11.4450 O   0  0  0  0  0
   63.5920  -59.7430  -13.6960 O   0  0  0  0  0
   65.9470  -60.2550  -11.1720 P   0  0  0  0  0
   66.9650  -59.3180  -10.6110 O   0  0  0  0  0
   66.2870  -61.0870  -12.3610 O   0  0  0  0  0
   65.4910  -61.2610  -10.0170 O   0  0  0  0  0
   66.2160  -62.5440   -9.3880 P   0  0  0  0  0
   67.5290  -62.1150   -8.8210 O   0  0  0  0  0
   66.2070  -63.6570  -10.3790 O   0  0  0  0  0
   65.2020  -62.9020   -8.2060 O   0  0  0  0  0
   64.9930  -61.9720   -7.1200 C   0  0  0  0  0
   64.4180  -62.7280   -5.9510 C   0  0  0  0  0
   63.0400  -63.0820   -6.2370 O   0  0  0  0  0
   65.1010  -64.0600   -5.6350 C   0  0  0  0  0
   66.2440  -63.8350   -4.8220 O   0  0  0  0  0
   63.9730  -64.8270   -4.9430 C   0  0  0  0  0
   63.8350  -64.4860   -3.5810 O   0  0  0  0  0
   62.7570  -64.3780   -5.7530 C   0  0  0  0  0
   62.4530  -65.2520   -6.8950 N   0  0  0  0  0
   63.0410  -65.2490   -8.1380 C   0  0  0  0  0
   62.5490  -66.1720   -8.9330 N   0  0  0  0  0
   61.5810  -66.8170   -8.1700 C   0  0  0  0  0
   60.7010  -67.8850   -8.4460 C   0  0  0  0  0
   60.6520  -68.5210   -9.6110 N   0  0  0  0  0
   59.8630  -68.2760   -7.4560 N   0  0  0  0  0
   59.9170  -67.6320   -6.2820 C   0  0  0  0  0
   60.7010  -66.6210   -5.9110 N   0  0  0  0  0
   61.5190  -66.2560   -6.9130 C   0  0  0  0  0
   66.7612  -57.1195  -12.7603 H   0  0  0  0  0
   68.0442  -56.1331  -13.5756 H   0  0  0  0  0
   68.5048  -57.5912  -12.5907 H   0  0  0  0  0
   65.5660  -58.6582  -14.3898 H   0  0  0  0  0
   65.0078  -63.6313  -14.4672 H   0  0  0  0  0
   65.9582  -59.9514  -17.7877 H   0  0  0  0  0
   67.0280  -61.8968  -16.0986 H   0  0  0  0  0
   65.3827  -61.5268  -14.3607 H   0  0  0  0  0
   63.2479  -61.4943  -16.5705 H   0  0  0  0  0
   62.3974  -61.4253  -14.2208 H   0  0  0  0  0
   62.0598  -59.9178  -15.1141 H   0  0  0  0  0
   65.3642  -63.2134  -17.3158 H   0  0  0  0  0
   64.3120  -61.1566   -7.4408 H   0  0  0  0  0
   65.9553  -61.5075   -6.8190 H   0  0  0  0  0
   64.4279  -62.0777   -5.0495 H   0  0  0  0  0
   65.3888  -64.6051   -6.5579 H   0  0  0  0  0
   66.9933  -63.6862   -5.3834 H   0  0  0  0  0
   64.1272  -65.9230   -5.0302 H   0  0  0  0  0
   64.7142  -64.3732   -3.2380 H   0  0  0  0  0
   61.8512  -64.3451   -5.1120 H   0  0  0  0  0
   63.8285  -64.6098   -8.5422 H   0  0  0  0  0
   59.2123  -67.9917   -5.5125 H   0  0  0  0  0
   71.7576  -59.3145  -18.5727 H   0  0  0  0  0
   70.3057  -60.2473  -19.1713 H   0  0  0  0  0
   59.9628  -69.2809   -9.6696 H   0  0  0  0  0
   61.2962  -68.2069  -10.3479 H   0  0  0  0  0
   71.5828  -58.1482  -16.7745 H   0  0  0  0  0
   61.9629  -58.7617  -10.7228 H   0  0  0  0  0
  1 11  1  0  0  0
  1 74  1  0  0  0
  1 75  1  0  0  0
  2  3  2  0  0  0
  3  4  1  0  0  0
  3 12  1  0  0  0
  4  5  1  0  0  0
  4  9  2  0  0  0
  5  6  1  0  0  0
  5  7  1  0  0  0
  6 52  1  0  0  0
  6 53  1  0  0  0
  6 54  1  0  0  0
  7  8  1  0  0  0
  7 55  1  0  0  0
  8  9  1  0  0  0
  8 14  1  0  0  0
  9 10  1  0  0  0
 10 11  2  0  0  0
 11 12  1  0  0  0
 12 78  1  0  0  0
 13 16  1  0  0  0
 13 56  1  0  0  0
 14 15  1  0  0  0
 14 19  1  0  0  0
 14 57  1  0  0  0
 15 16  1  0  0  0
 15 20  1  0  0  0
 15 58  1  0  0  0
 16 17  1  0  0  0
 16 59  1  0  0  0
 17 18  1  0  0  0
 17 19  1  0  0  0
 17 60  1  0  0  0
 18 25  1  0  0  0
 18 61  1  0  0  0
 18 62  1  0  0  0
 20 63  1  0  0  0
 21 22  1  0  0  0
 21 23  2  0  0  0
 21 24  1  0  0  0
 21 25  1  0  0  0
 24 26  1  0  0  0
 26 27  2  0  0  0
 26 28  2  0  0  0
 26 29  1  0  0  0
 29 30  1  0  0  0
 30 31  2  0  0  0
 30 32  2  0  0  0
 30 33  1  0  0  0
 33 34  1  0  0  0
 34 35  1  0  0  0
 34 64  1  0  0  0
 34 65  1  0  0  0
 35 36  1  0  0  0
 35 37  1  0  0  0
 35 66  1  0  0  0
 36 41  1  0  0  0
 37 38  1  0  0  0
 37 39  1  0  0  0
 37 67  1  0  0  0
 38 68  1  0  0  0
 39 40  1  0  0  0
 39 41  1  0  0  0
 39 69  1  0  0  0
 40 70  1  0  0  0
 41 42  1  0  0  0
 41 71  1  0  0  0
 42 43  1  0  0  0
 42 51  1  0  0  0
 43 44  2  0  0  0
 43 72  1  0  0  0
 44 45  1  0  0  0
 45 46  2  0  0  0
 45 51  1  0  0  0
 46 47  1  0  0  0
 46 48  1  0  0  0
 47 76  1  0  0  0
 47 77  1  0  0  0
 48 49  2  0  0  0
 49 50  1  0  0  0
 49 73  1  0  0  0
 50 51  2  0  0  0
 22 79  1  0  0  0
M  END
$$$$
