SAM_1_A_302
  -ISIS-            3D

 50 52  0  0  0  0  0  0  0  0  1 V2000
   60.9960  -65.7760    2.3550 N   0  3  0  0  0
   61.0690  -67.1930    1.8880 C   0  0  0  0  0
   62.3090  -67.8600    2.5020 C   0  0  0  0  0
   62.6910  -67.5220    3.6230 O   0  0  0  0  0
   62.9530  -68.7400    1.9260 O   0  0  0  0  0
   61.1220  -67.2660    0.3550 C   0  0  0  0  0
   59.8490  -66.7610   -0.3180 C   0  0  0  0  0
   59.8920  -66.9880   -2.1100 S   0  0  0  0  0
   61.1130  -65.7680   -2.5630 C   0  0  0  0  0
   58.3720  -66.1260   -2.5630 C   0  0  0  0  0
   57.1250  -66.7770   -2.0000 C   0  0  0  0  0
   55.9860  -65.9340   -2.2740 O   0  0  0  0  0
   56.7730  -68.1530   -2.5830 C   0  0  0  0  0
   56.9680  -69.1710   -1.6060 O   0  0  0  0  0
   55.2990  -68.0210   -3.0070 C   0  0  0  0  0
   54.5090  -69.1310   -2.6350 O   0  0  0  0  0
   54.8570  -66.7640   -2.2670 C   0  0  0  0  0
   53.7360  -66.0730   -2.8910 N   0  0  0  0  0
   53.6650  -65.6050   -4.1800 C   0  0  0  0  0
   52.5150  -65.0490   -4.4720 N   0  0  0  0  0
   51.7730  -65.1640   -3.3060 C   0  0  0  0  0
   50.4610  -64.7670   -2.9750 C   0  0  0  0  0
   49.6320  -64.1690   -3.8270 N   0  0  0  0  0
   50.0260  -65.0360   -1.7200 N   0  0  0  0  0
   50.8640  -65.6480   -0.8720 C   0  0  0  0  0
   52.1110  -66.0680   -1.0710 N   0  0  0  0  0
   52.5150  -65.7940   -2.3230 C   0  0  0  0  0
   61.8031  -65.2471    2.0364 H   0  0  0  0  0
   60.9618  -65.7304    3.3694 H   0  0  0  0  0
   60.1709  -67.7450    2.2544 H   0  0  0  0  0
   61.2827  -68.3260    0.0491 H   0  0  0  0  0
   62.0045  -66.6930   -0.0093 H   0  0  0  0  0
   59.6767  -65.6862   -0.0923 H   0  0  0  0  0
   58.9844  -67.3285    0.0905 H   0  0  0  0  0
   61.1103  -65.6207   -3.6648 H   0  0  0  0  0
   62.1333  -66.1027   -2.2783 H   0  0  0  0  0
   60.9324  -64.7795   -2.0890 H   0  0  0  0  0
   58.3131  -66.0722   -3.6721 H   0  0  0  0  0
   58.4376  -65.0766   -2.1993 H   0  0  0  0  0
   57.2072  -66.8605   -0.8957 H   0  0  0  0  0
   57.3946  -68.3786   -3.4747 H   0  0  0  0  0
   56.2746  -69.8093   -1.7281 H   0  0  0  0  0
   55.2515  -67.8656   -4.1058 H   0  0  0  0  0
   53.6089  -68.9356   -2.8616 H   0  0  0  0  0
   54.5797  -67.0075   -1.2189 H   0  0  0  0  0
   54.4384  -65.6413   -4.9587 H   0  0  0  0  0
   50.4577  -65.8368    0.1367 H   0  0  0  0  0
   48.7006  -63.9484   -3.4534 H   0  0  0  0  0
   49.9829  -63.9777   -4.7741 H   0  0  0  0  0
   60.1578  -65.3214    2.0076 H   0  0  0  0  0
  1  2  1  0  0  0
  1 28  1  0  0  0
  1 29  1  0  0  0
  2  3  1  0  0  0
  2  6  1  0  0  0
  2 30  1  0  0  0
  3  4  2  0  0  0
  3  5  2  0  0  0
  6  7  1  0  0  0
  6 31  1  0  0  0
  6 32  1  0  0  0
  7  8  1  0  0  0
  7 33  1  0  0  0
  7 34  1  0  0  0
  8  9  1  0  0  0
  8 10  1  0  0  0
  9 35  1  0  0  0
  9 36  1  0  0  0
  9 37  1  0  0  0
 10 11  1  0  0  0
 10 38  1  0  0  0
 10 39  1  0  0  0
 11 12  1  0  0  0
 11 13  1  0  0  0
 11 40  1  0  0  0
 12 17  1  0  0  0
 13 14  1  0  0  0
 13 15  1  0  0  0
 13 41  1  0  0  0
 14 42  1  0  0  0
 15 16  1  0  0  0
 15 17  1  0  0  0
 15 43  1  0  0  0
 16 44  1  0  0  0
 17 18  1  0  0  0
 17 45  1  0  0  0
 18 19  1  0  0  0
 18 27  1  0  0  0
 19 20  2  0  0  0
 19 46  1  0  0  0
 20 21  1  0  0  0
 21 22  2  0  0  0
 21 27  1  0  0  0
 22 23  1  0  0  0
 22 24  1  0  0  0
 23 48  1  0  0  0
 23 49  1  0  0  0
 24 25  2  0  0  0
 25 26  1  0  0  0
 25 47  1  0  0  0
 26 27  2  0  0  0
  1 50  1  0  0  0
M  END
$$$$
