ALD_1_B_401
  -ISIS-            3D

 77 77  0  0  0  0  0  0  0  0  1 V2000
   20.2950  -10.1250   -0.1350 C   0  0  0  0  0
   21.1380   -9.5070    0.4930 O   0  0  0  0  0
   19.5090  -11.1390    0.5420 O   0  0  0  0  0
   19.9280  -11.6460    1.8040 C   0  0  0  0  0
   20.8530  -12.8210    1.5640 C   0  0  0  0  0
   22.2390  -12.6340    1.6120 C   0  0  0  0  0
   23.0810  -13.7130    1.4070 C   0  0  0  0  0
   22.5440  -14.9800    1.1560 C   0  0  0  0  0
   21.1680  -15.1570    1.1240 C   0  0  0  0  0
   20.3260  -14.0770    1.3260 C   0  0  0  0  0
   20.0410   -9.9470   -1.4250 N   0  0  0  0  0
   20.5630   -8.8030   -2.1460 C   0  0  0  0  0
   19.7310   -7.5540   -2.1090 C   0  0  0  0  0
   18.5310   -7.5590   -2.4300 O   0  0  0  0  0
   20.6670   -9.2400   -3.6110 C   0  0  0  0  0
   21.3310  -10.6010   -3.7740 C   0  0  0  0  0
   20.8850  -11.2650   -5.0730 C   0  0  0  0  0
   22.8510  -10.4590   -3.7050 C   0  0  0  0  0
   20.3570   -6.4560   -1.7230 N   0  0  0  0  0
   19.7150   -5.1470   -1.8280 C   0  0  0  0  0
   19.5490   -4.6490   -3.2450 C   0  0  0  0  0
   20.5170   -4.3440   -3.8940 O   0  0  0  0  0
   20.5200   -4.1240   -1.0380 C   0  0  0  0  0
   20.6320   -4.5020    0.4310 C   0  0  0  0  0
   19.2890   -4.3060    1.1480 C   0  0  0  0  0
   21.7160   -3.6800    1.1120 C   0  0  0  0  0
   18.2910   -4.5890   -3.7220 N   0  0  0  0  0
   17.9930   -4.0110   -5.0360 C   0  0  0  0  0
   17.6140   -2.5310   -4.8460 C   0  0  0  0  0
   16.8970   -4.7540   -5.7510 C   0  0  0  0  0
   17.1710   -6.2450   -5.9140 C   0  0  0  0  0
   18.5880   -6.5730   -6.3380 C   0  0  0  0  0
   16.1330   -6.8600   -6.8580 C   0  0  0  0  0
   17.4100   -1.9120   -6.1210 O   0  0  0  0  0
   19.0424  -11.9811    2.3821 H   0  0  0  0  0
   20.4205  -10.8713    2.4255 H   0  0  0  0  0
   22.6650  -11.6352    1.8084 H   0  0  0  0  0
   24.1752  -13.5745    1.4391 H   0  0  0  0  0
   23.2158  -15.8389    0.9880 H   0  0  0  0  0
   20.7457  -16.1584    0.9339 H   0  0  0  0  0
   19.2333  -14.2272    1.2945 H   0  0  0  0  0
   19.3762  -10.5893   -1.8759 H   0  0  0  0  0
   21.5962   -8.5734   -1.7936 H   0  0  0  0  0
   21.2025   -8.4671   -4.2090 H   0  0  0  0  0
   19.6373   -9.2947   -4.0363 H   0  0  0  0  0
   21.0299  -11.2962   -2.9573 H   0  0  0  0  0
   21.3667  -12.2585   -5.2127 H   0  0  0  0  0
   21.1428  -10.6476   -5.9624 H   0  0  0  0  0
   19.7852  -11.4353   -5.0959 H   0  0  0  0  0
   23.3575  -11.4440   -3.8130 H   0  0  0  0  0
   23.1877  -10.0326   -2.7344 H   0  0  0  0  0
   23.2452   -9.8004   -4.5106 H   0  0  0  0  0
   21.3291   -6.5143   -1.3914 H   0  0  0  0  0
   18.7014   -5.1962   -1.3659 H   0  0  0  0  0
   20.0585   -3.1141   -1.1368 H   0  0  0  0  0
   21.5415   -4.0461   -1.4782 H   0  0  0  0  0
   20.9235   -5.5744    0.5316 H   0  0  0  0  0
   19.3748   -4.5264    2.2359 H   0  0  0  0  0
   18.4943   -4.9784    0.7569 H   0  0  0  0  0
   18.9155   -3.2615    1.0570 H   0  0  0  0  0
   21.8190   -3.9445    2.1882 H   0  0  0  0  0
   21.5038   -2.5886    1.0612 H   0  0  0  0  0
   22.7132   -3.8436    0.6455 H   0  0  0  0  0
   17.5177   -4.9623   -3.1534 H   0  0  0  0  0
   18.9007   -4.0291   -5.6841 H   0  0  0  0  0
   18.4251   -1.9966   -4.3045 H   0  0  0  0  0
   16.6903   -2.4386   -4.2349 H   0  0  0  0  0
   16.7542   -4.3034   -6.7607 H   0  0  0  0  0
   15.9322   -4.6163   -5.2093 H   0  0  0  0  0
   17.0171   -6.7243   -4.9142 H   0  0  0  0  0
   18.7140   -7.6641   -6.5187 H   0  0  0  0  0
   19.3450   -6.3028   -5.5710 H   0  0  0  0  0
   18.8677   -6.0562   -7.2833 H   0  0  0  0  0
   16.2455   -7.9655   -6.9268 H   0  0  0  0  0
   16.2227   -6.4567   -7.8919 H   0  0  0  0  0
   15.0926   -6.6625   -6.5141 H   0  0  0  0  0
   17.2811   -0.9833   -5.9847 H   0  0  0  0  0
  1  2  2  0  0  0
  1  3  1  0  0  0
  1 11  1  0  0  0
  3  4  1  0  0  0
  4  5  1  0  0  0
  4 35  1  0  0  0
  4 36  1  0  0  0
  5  6  2  0  0  0
  5 10  1  0  0  0
  6  7  1  0  0  0
  6 37  1  0  0  0
  7  8  2  0  0  0
  7 38  1  0  0  0
  8  9  1  0  0  0
  8 39  1  0  0  0
  9 10  2  0  0  0
  9 40  1  0  0  0
 10 41  1  0  0  0
 11 12  1  0  0  0
 11 42  1  0  0  0
 12 13  1  0  0  0
 12 15  1  0  0  0
 12 43  1  0  0  0
 13 14  2  0  0  0
 13 19  1  0  0  0
 15 16  1  0  0  0
 15 44  1  0  0  0
 15 45  1  0  0  0
 16 17  1  0  0  0
 16 18  1  0  0  0
 16 46  1  0  0  0
 17 47  1  0  0  0
 17 48  1  0  0  0
 17 49  1  0  0  0
 18 50  1  0  0  0
 18 51  1  0  0  0
 18 52  1  0  0  0
 19 20  1  0  0  0
 19 53  1  0  0  0
 20 21  1  0  0  0
 20 23  1  0  0  0
 20 54  1  0  0  0
 21 22  2  0  0  0
 21 27  1  0  0  0
 23 24  1  0  0  0
 23 55  1  0  0  0
 23 56  1  0  0  0
 24 25  1  0  0  0
 24 26  1  0  0  0
 24 57  1  0  0  0
 25 58  1  0  0  0
 25 59  1  0  0  0
 25 60  1  0  0  0
 26 61  1  0  0  0
 26 62  1  0  0  0
 26 63  1  0  0  0
 27 28  1  0  0  0
 27 64  1  0  0  0
 28 29  1  0  0  0
 28 30  1  0  0  0
 28 65  1  0  0  0
 29 34  1  0  0  0
 29 66  1  0  0  0
 29 67  1  0  0  0
 30 31  1  0  0  0
 30 68  1  0  0  0
 30 69  1  0  0  0
 31 32  1  0  0  0
 31 33  1  0  0  0
 31 70  1  0  0  0
 32 71  1  0  0  0
 32 72  1  0  0  0
 32 73  1  0  0  0
 33 74  1  0  0  0
 33 75  1  0  0  0
 33 76  1  0  0  0
 34 77  1  0  0  0
M  END
$$$$
