@<TRIPOS>MOLECULE
DMS_2_A_403
 10 9 0 0 0
SMALL
NO_CHARGES

@<TRIPOS>ATOM
      1 S          -2.3080  -19.2080   -8.2810 S.o    403  DMS403      0.0000
      2 O          -3.5880  -18.8730   -8.9950 O.2    403  DMS403      0.0000
      3 C1         -1.0270  -18.3050   -9.1240 C.3    403  DMS403      0.0000
      4 C2         -1.8540  -20.8250   -8.8620 C.3    403  DMS403      0.0000
      5 H          -0.0325  -18.6267   -8.7524 H      403  DMS403      0.0000
      6 H          -1.1505  -17.2212   -8.9223 H      403  DMS403      0.0000
      7 H          -1.0871  -18.4771  -10.2182 H      403  DMS403      0.0000
      8 H          -0.8380  -21.0839   -8.4998 H      403  DMS403      0.0000
      9 H          -1.8712  -20.8581   -9.9707 H      403  DMS403      0.0000
     10 H          -2.5743  -21.5709   -8.4681 H      403  DMS403      0.0000
@<TRIPOS>BOND
     1     1     2    2
     2     1     3    1
     3     1     4    1
     4     3     5    1
     5     3     6    1
     6     3     7    1
     7     4     8    1
     8     4     9    1
     9     4    10    1

