@<TRIPOS>MOLECULE
DMS_2_A_405
 10 9 0 0 0
SMALL
NO_CHARGES

@<TRIPOS>ATOM
      1 S          -8.9190   -4.5070  -27.3020 S.o    405  DMS405      0.0000
      2 O          -9.6910   -5.0710  -26.1390 O.2    405  DMS405      0.0000
      3 C1         -7.2590   -5.1060  -27.1300 C.3    405  DMS405      0.0000
      4 C2         -8.5980   -2.8110  -26.8990 C.3    405  DMS405      0.0000
      5 H          -6.6007   -4.6107  -27.8726 H      405  DMS405      0.0000
      6 H          -7.2438   -6.2000  -27.3127 H      405  DMS405      0.0000
      7 H          -6.8787   -4.9060  -26.1073 H      405  DMS405      0.0000
      8 H          -7.9073   -2.3701  -27.6465 H      405  DMS405      0.0000
      9 H          -8.1484   -2.7310  -25.8880 H      405  DMS405      0.0000
     10 H          -9.5512   -2.2440  -26.9155 H      405  DMS405      0.0000
@<TRIPOS>BOND
     1     1     2    2
     2     1     3    1
     3     1     4    1
     4     3     5    1
     5     3     6    1
     6     3     7    1
     7     4     8    1
     8     4     9    1
     9     4    10    1

