4JQ_1_A_201
  -ISIS-            3D

 21 22  0  0  0  0  0  0  0  0  1 V2000
    3.3910    3.7520   -1.7640 C   0  0  0  0  0
    3.2640    4.8590   -0.9190 C   0  0  0  0  0
    3.2690    4.6780    0.4740 C   0  0  0  0  0
    2.8660    5.6760    2.7630 C   0  0  0  0  0
    2.9370    4.3040    3.3480 C   0  0  0  0  0
    3.4110    3.2180    2.5140 C   0  0  0  0  0
    3.4030    3.3930    1.0160 C   0  0  0  0  0
    3.5320    2.2900    0.1520 C   0  0  0  0  0
    2.5950    6.6120    3.4280 O   0  0  0  0  0
    3.1330    5.8570    1.3690 O   0  0  0  0  0
    3.5290    2.4560   -1.2060 C   0  0  0  0  0
    3.6650    1.3150   -2.0850 N   0  0  0  0  0
    3.3854    3.8906   -2.8575 H   0  0  0  0  0
    3.1590    5.8713   -1.3433 H   0  0  0  0  0
    1.8986    4.0606    3.6740 H   0  0  0  0  0
    3.5221    4.3407    4.2950 H   0  0  0  0  0
    2.8526    2.2863    2.7669 H   0  0  0  0  0
    4.4709    3.0030    2.7902 H   0  0  0  0  0
    3.6389    1.2789    0.5785 H   0  0  0  0  0
    3.7691    0.3974   -1.6333 H   0  0  0  0  0
    3.6468    1.5122   -3.0937 H   0  0  0  0  0
  1  2  2  0  0  0
  1 11  1  0  0  0
  1 13  1  0  0  0
  2  3  1  0  0  0
  2 14  1  0  0  0
  3  7  2  0  0  0
  3 10  1  0  0  0
  4  5  1  0  0  0
  4  9  2  0  0  0
  4 10  1  0  0  0
  5  6  1  0  0  0
  5 15  1  0  0  0
  5 16  1  0  0  0
  6  7  1  0  0  0
  6 17  1  0  0  0
  6 18  1  0  0  0
  7  8  1  0  0  0
  8 11  2  0  0  0
  8 19  1  0  0  0
 11 12  1  0  0  0
 12 20  1  0  0  0
 12 21  1  0  0  0
M  END
$$$$
