@<TRIPOS>MOLECULE
4JQ_1_A_201
 21 22 0 0 0
SMALL
NO_CHARGES

@<TRIPOS>ATOM
      1 C1          3.3910    3.7520   -1.7640 C.ar   201  4JQ201      0.0000
      2 C2          3.2640    4.8590   -0.9190 C.ar   201  4JQ201      0.0000
      3 C3          3.2690    4.6780    0.4740 C.ar   201  4JQ201      0.0000
      4 C4          2.8660    5.6760    2.7630 C.2    201  4JQ201      0.0000
      5 C5          2.9370    4.3040    3.3480 C.3    201  4JQ201      0.0000
      6 C6          3.4110    3.2180    2.5140 C.3    201  4JQ201      0.0000
      7 C7          3.4030    3.3930    1.0160 C.ar   201  4JQ201      0.0000
      8 C8          3.5320    2.2900    0.1520 C.ar   201  4JQ201      0.0000
      9 O1          2.5950    6.6120    3.4280 O.2    201  4JQ201      0.0000
     10 O           3.1330    5.8570    1.3690 O.3    201  4JQ201      0.0000
     11 C           3.5290    2.4560   -1.2060 C.ar   201  4JQ201      0.0000
     12 N           3.6650    1.3150   -2.0850 N.3    201  4JQ201      0.0000
     13 H           3.3854    3.8906   -2.8575 H      201  4JQ201      0.0000
     14 H           3.1590    5.8713   -1.3433 H      201  4JQ201      0.0000
     15 H           1.8986    4.0606    3.6740 H      201  4JQ201      0.0000
     16 H           3.5221    4.3407    4.2950 H      201  4JQ201      0.0000
     17 H           2.8526    2.2863    2.7669 H      201  4JQ201      0.0000
     18 H           4.4709    3.0030    2.7902 H      201  4JQ201      0.0000
     19 H           3.6389    1.2789    0.5785 H      201  4JQ201      0.0000
     20 H           3.7691    0.3974   -1.6333 H      201  4JQ201      0.0000
     21 H           3.6468    1.5122   -3.0937 H      201  4JQ201      0.0000
@<TRIPOS>BOND
     1     1     2   ar
     2     1    11   ar
     3     1    13    1
     4     2     3   ar
     5     2    14    1
     6     3     7   ar
     7     3    10    1
     8     4     5    1
     9     4     9    2
    10     4    10    1
    11     5     6    1
    12     5    15    1
    13     5    16    1
    14     6     7    1
    15     6    17    1
    16     6    18    1
    17     7     8   ar
    18     8    11   ar
    19     8    19    1
    20    11    12    1
    21    12    20    1
    22    12    21    1

