FMT_1_A_7108
  -ISIS-            3D

  4  3  0  0  0  0  0  0  0  0  1 V2000
   99.3340   14.5750   12.5800 C   0  0  0  0  0
   98.1890   14.2260   12.7830 O   0  0  0  0  0
   99.7960   14.9890   11.4350 O   0  0  0  0  0
  100.0740   14.5394   13.4652 H   0  0  0  0  0
  1  2  2  0  0  0
  1  3  1  0  0  0
  1  4  1  0  0  0
M  END
$$$$
