FMT_1_A_7106
  -ISIS-            3D

  4  3  0  0  0  0  0  0  0  0  1 V2000
   99.4550    9.2410  -15.8670 C   0  0  0  0  0
   98.6530    9.2070  -16.7790 O   0  0  0  0  0
   99.4890   10.1540  -14.9390 O   0  0  0  0  0
  100.2485    8.4043  -15.8137 H   0  0  0  0  0
  1  2  2  0  0  0
  1  3  1  0  0  0
  1  4  1  0  0  0
M  END
$$$$
