@<TRIPOS>MOLECULE
FMT_1_A_7109
 3 2 0 0 0
SMALL
NO_CHARGES

@<TRIPOS>ATOM
      1 C         102.0570    7.5190  -10.0250 C.2   7109  FMT7109      0.0000
      2 O1        101.9520    7.1180   -8.8830 O.2   7109  FMT7109      0.0000
      3 O2        101.0900    7.5510  -10.8920 O.2   7109  FMT7109     -0.5000
@<TRIPOS>BOND
     1     1     2   ar
     2     1     3   ar

