@<TRIPOS>MOLECULE
FMT_1_A_7105
 4 3 0 0 0
SMALL
NO_CHARGES

@<TRIPOS>ATOM
      1 C         105.4620   29.9060    3.7520 C.2   7105  FMT7105      0.0000
      2 O1        104.6650   29.6580    4.6330 O.2   7105  FMT7105     -0.5000
      3 O2        105.2990   29.6190    2.4930 O.3   7105  FMT7105     -0.5000
      4 H         106.4431   30.4378    4.0475 H     7105  FMT7105      0.0000
@<TRIPOS>BOND
     1     1     2   ar
     2     1     3   ar
     3     1     4    1

