@<TRIPOS>MOLECULE
FMT_1_A_7104
 4 3 0 0 0
SMALL
NO_CHARGES

@<TRIPOS>ATOM
      1 C          81.9880   26.0920   12.3380 C.2   7104  FMT7104      0.0000
      2 O1         82.2990   24.9600   12.0300 O.2   7104  FMT7104     -0.5000
      3 O2         82.7930   26.9730   12.8580 O.3   7104  FMT7104     -0.5000
      4 H          80.8955   26.4186   12.1582 H     7104  FMT7104      0.0000
@<TRIPOS>BOND
     1     1     2   ar
     2     1     3   ar
     3     1     4    1

