@<TRIPOS>MOLECULE
FMT_1_A_7103
 4 3 0 0 0
SMALL
NO_CHARGES

@<TRIPOS>ATOM
      1 C         101.1070   11.0280    8.2260 C.2   7103  FMT7103      0.0000
      2 O1        100.3630   10.9370    7.2710 O.2   7103  FMT7103     -0.5000
      3 O2        101.1250   12.0220    9.0710 O.3   7103  FMT7103     -0.5000
      4 H         101.8596   10.1714    8.4060 H     7103  FMT7103      0.0000
@<TRIPOS>BOND
     1     1     2   ar
     2     1     3   ar
     3     1     4    1

