@<TRIPOS>MOLECULE
DMS_1_A_1005
 10 9 0 0 0
SMALL
NO_CHARGES

@<TRIPOS>ATOM
      1 S          21.1200   14.6460    8.0200 S.o   1005  DMS1005      0.0000
      2 O          22.5890   14.6850    7.9570 O.2   1005  DMS1005      0.0000
      3 C1         20.7720   13.2040    8.9730 C.3   1005  DMS1005      0.0000
      4 C2         20.6490   13.9530    6.4760 C.3   1005  DMS1005      0.0000
      5 H          19.6888   12.9697    8.9247 H     1005  DMS1005      0.0000
      6 H          21.0455   13.3905   10.0318 H     1005  DMS1005      0.0000
      7 H          21.3540   12.3353    8.6021 H     1005  DMS1005      0.0000
      8 H          19.5690   13.7002    6.4869 H     1005  DMS1005      0.0000
      9 H          21.2387   13.0395    6.2557 H     1005  DMS1005      0.0000
     10 H          20.8286   14.6952    5.6713 H     1005  DMS1005      0.0000
@<TRIPOS>BOND
     1     1     2    2
     2     1     3    1
     3     1     4    1
     4     3     5    1
     5     3     6    1
     6     3     7    1
     7     4     8    1
     8     4     9    1
     9     4    10    1

