DMS_2_A_1005
  -ISIS-            3D

 10  9  0  0  0  0  0  0  0  0  1 V2000
  -21.1200   14.6460   -8.0200 S   0  0  0  0  0
  -22.5890   14.6850   -7.9570 O   0  0  0  0  0
  -20.7720   13.2040   -8.9730 C   0  0  0  0  0
  -20.6490   13.9530   -6.4760 C   0  0  0  0  0
  -19.6888   12.9697   -8.9247 H   0  0  0  0  0
  -21.0455   13.3905  -10.0318 H   0  0  0  0  0
  -21.3540   12.3353   -8.6021 H   0  0  0  0  0
  -19.5690   13.7002   -6.4869 H   0  0  0  0  0
  -21.2387   13.0395   -6.2557 H   0  0  0  0  0
  -20.8286   14.6952   -5.6713 H   0  0  0  0  0
  1  2  2  0  0  0
  1  3  1  0  0  0
  1  4  1  0  0  0
  3  5  1  0  0  0
  3  6  1  0  0  0
  3  7  1  0  0  0
  4  8  1  0  0  0
  4  9  1  0  0  0
  4 10  1  0  0  0
M  END
$$$$
