@<TRIPOS>MOLECULE
DMS_1_A_1003
 10 9 0 0 0
SMALL
NO_CHARGES

@<TRIPOS>ATOM
      1 S           6.1870   -1.1400   -6.3000 S.o   1003  DMS1003      0.0000
      2 O           7.0720   -0.7500   -7.3900 O.2   1003  DMS1003      0.0000
      3 C1          7.2280   -1.1840   -4.8590 C.3   1003  DMS1003      0.0000
      4 C2          5.9180   -2.8610   -6.5190 C.3   1003  DMS1003      0.0000
      5 H           6.6687   -1.6202   -4.0063 H     1003  DMS1003      0.0000
      6 H           7.5356   -0.1513   -4.5956 H     1003  DMS1003      0.0000
      7 H           8.1342   -1.7933   -5.0554 H     1003  DMS1003      0.0000
      8 H           5.3784   -3.2720   -5.6414 H     1003  DMS1003      0.0000
      9 H           6.8842   -3.3935   -6.6374 H     1003  DMS1003      0.0000
     10 H           5.3015   -3.0264   -7.4262 H     1003  DMS1003      0.0000
@<TRIPOS>BOND
     1     1     2    2
     2     1     3    1
     3     1     4    1
     4     3     5    1
     5     3     6    1
     6     3     7    1
     7     4     8    1
     8     4     9    1
     9     4    10    1

