@<TRIPOS>MOLECULE
DMS_1_A_1004
 10 9 0 0 0
SMALL
NO_CHARGES

@<TRIPOS>ATOM
      1 S           2.3610  -18.9980    8.2080 S.o   1004  DMS1004      0.0000
      2 O           3.6420  -18.8860    8.9490 O.2   1004  DMS1004      0.0000
      3 C1          1.2110  -18.1190    9.2120 C.3   1004  DMS1004      0.0000
      4 C2          1.7640  -20.6050    8.6650 C.3   1004  DMS1004      0.0000
      5 H           0.1765  -18.3080    8.8591 H     1004  DMS1004      0.0000
      6 H           1.4159  -17.0314    9.1354 H     1004  DMS1004      0.0000
      7 H           1.2996  -18.4237   10.2751 H     1004  DMS1004      0.0000
      8 H           0.7141  -20.7289    8.3290 H     1004  DMS1004      0.0000
      9 H           1.8202  -20.7494    9.7636 H     1004  DMS1004      0.0000
     10 H           2.3865  -21.3791    8.1710 H     1004  DMS1004      0.0000
@<TRIPOS>BOND
     1     1     2    2
     2     1     3    1
     3     1     4    1
     4     3     5    1
     5     3     6    1
     6     3     7    1
     7     4     8    1
     8     4     9    1
     9     4    10    1

