@<TRIPOS>MOLECULE
DMS_1_A_401
 10 9 0 0 0
SMALL
NO_CHARGES

@<TRIPOS>ATOM
      1 S          16.9410   24.7460  -22.5960 S.o    401  DMS401      0.0000
      2 O          17.7490   25.7530  -21.8410 O.2    401  DMS401      0.0000
      3 C1         15.6190   24.1310  -21.5120 C.3    401  DMS401      0.0000
      4 C2         15.9570   25.5450  -23.8910 C.3    401  DMS401      0.0000
      5 H          14.9815   23.4175  -22.0731 H      401  DMS401      0.0000
      6 H          15.0019   24.9798  -21.1525 H      401  DMS401      0.0000
      7 H          16.0716   23.6111  -20.6431 H      401  DMS401      0.0000
      8 H          15.3162   24.7895  -24.3896 H      401  DMS401      0.0000
      9 H          16.6383   25.9977  -24.6399 H      401  DMS401      0.0000
     10 H          15.3216   26.3380  -23.4455 H      401  DMS401      0.0000
@<TRIPOS>BOND
     1     1     2    2
     2     1     3    1
     3     1     4    1
     4     3     5    1
     5     3     6    1
     6     3     7    1
     7     4     8    1
     8     4     9    1
     9     4    10    1

