@<TRIPOS>MOLECULE
DMS_1_A_405
 10 9 0 0 0
SMALL
NO_CHARGES

@<TRIPOS>ATOM
      1 S           6.7900   -2.1970   -6.4580 S.o    405  DMS405      0.0000
      2 O           7.0240   -1.1030   -5.4650 O.2    405  DMS405      0.0000
      3 C1          6.4000   -1.4820   -8.0790 C.3    405  DMS405      0.0000
      4 C2          5.2190   -3.0320   -6.0970 C.3    405  DMS405      0.0000
      5 H           6.1685   -2.2948   -8.7973 H      405  DMS405      0.0000
      6 H           7.2759   -0.9088   -8.4459 H      405  DMS405      0.0000
      7 H           5.5274   -0.8029   -7.9905 H      405  DMS405      0.0000
      8 H           5.0211   -3.8012   -6.8712 H      405  DMS405      0.0000
      9 H           4.3931   -2.2915   -6.0873 H      405  DMS405      0.0000
     10 H           5.2853   -3.5216   -5.1039 H      405  DMS405      0.0000
@<TRIPOS>BOND
     1     1     2    2
     2     1     3    1
     3     1     4    1
     4     3     5    1
     5     3     6    1
     6     3     7    1
     7     4     8    1
     8     4     9    1
     9     4    10    1

