DMS_2_A_402
  -ISIS-            3D

 10  9  0  0  0  0  0  0  0  0  1 V2000
  -20.4250  -16.8920   -5.5550 S   0  0  0  0  0
  -20.8620  -18.0470   -4.7120 O   0  0  0  0  0
  -21.7920  -15.7100   -5.7250 C   0  0  0  0  0
  -20.2450  -17.4370   -7.2750 C   0  0  0  0  0
  -21.4881  -14.8867   -6.4032 H   0  0  0  0  0
  -22.0385  -15.2905   -4.7282 H   0  0  0  0  0
  -22.6839  -16.2237   -6.1387 H   0  0  0  0  0
  -19.9820  -16.5690   -7.9135 H   0  0  0  0  0
  -21.1959  -17.8853   -7.6290 H   0  0  0  0  0
  -19.4365  -18.1939   -7.3360 H   0  0  0  0  0
  1  2  2  0  0  0
  1  3  1  0  0  0
  1  4  1  0  0  0
  3  5  1  0  0  0
  3  6  1  0  0  0
  3  7  1  0  0  0
  4  8  1  0  0  0
  4  9  1  0  0  0
  4 10  1  0  0  0
M  END
$$$$
