DMS_2_A_405
  -ISIS-            3D

 10  9  0  0  0  0  0  0  0  0  1 V2000
   -6.7900   -2.1970    6.4580 S   0  0  0  0  0
   -7.0240   -1.1030    5.4650 O   0  0  0  0  0
   -6.4000   -1.4820    8.0790 C   0  0  0  0  0
   -5.2190   -3.0320    6.0970 C   0  0  0  0  0
   -6.1685   -2.2948    8.7973 H   0  0  0  0  0
   -7.2759   -0.9088    8.4459 H   0  0  0  0  0
   -5.5274   -0.8029    7.9905 H   0  0  0  0  0
   -5.0211   -3.8012    6.8712 H   0  0  0  0  0
   -4.3931   -2.2915    6.0873 H   0  0  0  0  0
   -5.2853   -3.5216    5.1039 H   0  0  0  0  0
  1  2  2  0  0  0
  1  3  1  0  0  0
  1  4  1  0  0  0
  3  5  1  0  0  0
  3  6  1  0  0  0
  3  7  1  0  0  0
  4  8  1  0  0  0
  4  9  1  0  0  0
  4 10  1  0  0  0
M  END
$$$$
