@<TRIPOS>MOLECULE
DMS_1_A_403
 10 9 0 0 0
SMALL
NO_CHARGES

@<TRIPOS>ATOM
      1 S           2.3660  -18.8730    8.0290 S.o    403  DMS403      0.0000
      2 O           3.6680  -18.6620    8.8080 O.2    403  DMS403      0.0000
      3 C1          1.1210  -18.0400    8.9940 C.3    403  DMS403      0.0000
      4 C2          1.8680  -20.5260    8.4680 C.3    403  DMS403      0.0000
      5 H           0.1125  -18.2962    8.6099 H      403  DMS403      0.0000
      6 H           1.2670  -16.9435    8.9100 H      403  DMS403      0.0000
      7 H           1.1961  -18.3319   10.0614 H      403  DMS403      0.0000
      8 H           0.8392  -20.7196    8.1013 H      403  DMS403      0.0000
      9 H           1.9009  -20.6635    9.5683 H      403  DMS403      0.0000
     10 H           2.5583  -21.2536    7.9939 H      403  DMS403      0.0000
@<TRIPOS>BOND
     1     1     2    2
     2     1     3    1
     3     1     4    1
     4     3     5    1
     5     3     6    1
     6     3     7    1
     7     4     8    1
     8     4     9    1
     9     4    10    1

