@<TRIPOS>MOLECULE
DMS_1_A_401
 10 9 0 0 0
SMALL
NO_CHARGES

@<TRIPOS>ATOM
      1 S           6.9010  -28.0550   21.5180 S.o    401  DMS401      0.0000
      2 O           7.7160  -27.0940   22.2920 O.2    401  DMS401      0.0000
      3 C1          5.6270  -28.6840   22.5980 C.3    401  DMS401      0.0000
      4 C2          5.8960  -27.0700   20.4590 C.3    401  DMS401      0.0000
      5 H           4.9116  -29.2999   22.0153 H      401  DMS401      0.0000
      6 H           5.0855  -27.8461   23.0826 H      401  DMS401      0.0000
      7 H           6.0913  -29.3170   23.3817 H      401  DMS401      0.0000
      8 H           5.1668  -27.7139   19.9258 H      401  DMS401      0.0000
      9 H           6.5371  -26.5617   19.7101 H      401  DMS401      0.0000
     10 H           5.3496  -26.3036   21.0457 H      401  DMS401      0.0000
@<TRIPOS>BOND
     1     1     2    2
     2     1     3    1
     3     1     4    1
     4     3     5    1
     5     3     6    1
     6     3     7    1
     7     4     8    1
     8     4     9    1
     9     4    10    1

