DMS_2_A_403
  -ISIS-            3D

 10  9  0  0  0  0  0  0  0  0  1 V2000
   -2.3660  -18.8730   -8.0290 S   0  0  0  0  0
   -3.6680  -18.6620   -8.8080 O   0  0  0  0  0
   -1.1210  -18.0400   -8.9940 C   0  0  0  0  0
   -1.8680  -20.5260   -8.4680 C   0  0  0  0  0
   -0.1125  -18.2962   -8.6099 H   0  0  0  0  0
   -1.2670  -16.9435   -8.9100 H   0  0  0  0  0
   -1.1961  -18.3319  -10.0614 H   0  0  0  0  0
   -0.8392  -20.7196   -8.1013 H   0  0  0  0  0
   -1.9009  -20.6635   -9.5683 H   0  0  0  0  0
   -2.5583  -21.2536   -7.9939 H   0  0  0  0  0
  1  2  2  0  0  0
  1  3  1  0  0  0
  1  4  1  0  0  0
  3  5  1  0  0  0
  3  6  1  0  0  0
  3  7  1  0  0  0
  4  8  1  0  0  0
  4  9  1  0  0  0
  4 10  1  0  0  0
M  END
$$$$
