@<TRIPOS>MOLECULE
GTA_1_A_7102
 79 84 0 0 0
SMALL
NO_CHARGES

@<TRIPOS>ATOM
      1 N2         82.8400   30.7780   45.3210 N.pl3 7102  GTA7102      0.0000
      2 O6         85.1880   31.9580   41.5740 O.2   7102  GTA7102      0.0000
      3 C6         84.8070   31.0420   42.2920 C.ar  7102  GTA7102      0.0000
      4 C5         85.0430   29.6770   42.1490 C.ar  7102  GTA7102      0.0000
      5 N7         85.7510   28.9400   41.1970 N.ar  7102  GTA7102      0.0000
      6 C7         86.4350   29.4690   40.0190 C.3   7102  GTA7102      0.0000
      7 C8         85.7050   27.6560   41.5490 C.ar  7102  GTA7102      0.0000
      8 N9         84.9580   27.5080   42.6220 N.ar  7102  GTA7102      0.0000
      9 C4         84.5420   28.7710   43.0470 C.ar  7102  GTA7102      0.0000
     10 N3         83.8000   29.0480   44.1350 N.ar  7102  GTA7102      0.0000
     11 C2         83.5690   30.3420   44.2890 C.ar  7102  GTA7102      0.0000
     12 N1         84.0440   31.2910   43.4190 N.ar  7102  GTA7102      0.0000
     13 O3A        82.7890   23.7270   41.7470 O.3   7102  GTA7102      0.0000
     14 C1A        84.8170   26.2710   43.4200 C.3   7102  GTA7102      0.0000
     15 C2A        83.4500   25.6510   43.1790 C.3   7102  GTA7102      0.0000
     16 C3A        83.7480   24.7440   41.9990 C.3   7102  GTA7102      0.0000
     17 C4A        85.1020   24.1670   42.4260 C.3   7102  GTA7102      0.0000
     18 C5A        85.9610   23.6030   41.3160 C.3   7102  GTA7102      0.0000
     19 O4A        85.7760   25.2960   43.0510 O.3   7102  GTA7102      0.0000
     20 O2A        83.0650   24.9390   44.3420 O.3   7102  GTA7102      0.0000
     21 P1         86.4130   24.2260   38.7840 P.3   7102  GTA7102      0.0000
     22 O11        87.8380   23.8890   38.5090 O.co2 7102  GTA7102      0.0000
     23 O12        85.3690   23.2400   38.4100 O.co2 7102  GTA7102      0.0000
     24 O13        86.0810   25.6290   38.0790 O.3   7102  GTA7102      0.0000
     25 O15        86.2380   24.6360   40.3300 O.3   7102  GTA7102      0.0000
     26 P2         84.7360   26.4650   37.8390 P.3   7102  GTA7102      0.0000
     27 O22        85.1200   27.8330   37.3760 O.co2 7102  GTA7102      0.0000
     28 O21        83.8240   26.3210   39.0110 O.co2 7102  GTA7102      0.0000
     29 O23        84.0870   25.6390   36.6360 O.3   7102  GTA7102      0.0000
     30 P3         82.5890   25.6540   36.0740 P.3   7102  GTA7102      0.0000
     31 O32        82.2510   27.0460   35.6440 O.co2 7102  GTA7102      0.0000
     32 O31        81.6800   24.9810   37.0460 O.co2 7102  GTA7102      0.0000
     33 O33        82.7540   24.7140   34.7970 O.3   7102  GTA7102      0.0000
     34 C5B        83.4360   25.2020   33.6260 C.3   7102  GTA7102      0.0000
     35 C4B        83.1140   24.2830   32.4770 C.3   7102  GTA7102      0.0000
     36 O4B        83.5250   22.9370   32.8200 O.3   7102  GTA7102      0.0000
     37 C3B        81.6280   24.1480   32.1260 C.3   7102  GTA7102      0.0000
     38 O3B        81.1950   25.2200   31.2980 O.3   7102  GTA7102      0.0000
     39 C2B        81.6150   22.7880   31.4260 C.3   7102  GTA7102      0.0000
     40 O2B        82.0460   22.8550   30.0840 O.3   7102  GTA7102      0.0000
     41 C1B        82.6120   22.0050   32.2800 C.3   7102  GTA7102      0.0000
     42 N9C        81.9830   21.2710   33.3760 N.ar  7102  GTA7102      0.0000
     43 C8C        81.8080   21.6710   34.6810 C.ar  7102  GTA7102      0.0000
     44 N7C        81.1930   20.7660   35.4070 N.ar  7102  GTA7102      0.0000
     45 C5C        80.9500   19.7160   34.5300 C.ar  7102  GTA7102      0.0000
     46 C6C        80.3300   18.4620   34.6930 C.ar  7102  GTA7102      0.0000
     47 N6C        79.8190   18.0350   35.8430 N.pl3 7102  GTA7102      0.0000
     48 N1C        80.2540   17.6570   33.6050 N.ar  7102  GTA7102      0.0000
     49 C2C        80.7720   18.0940   32.4480 C.ar  7102  GTA7102      0.0000
     50 N3C        81.3780   19.2490   32.1790 N.ar  7102  GTA7102      0.0000
     51 C4C        81.4340   20.0220   33.2760 C.ar  7102  GTA7102      0.0000
     52 H          86.9712   28.6508   39.4903 H     7102  GTA7102      0.0000
     53 H          87.1716   30.2394   40.3361 H     7102  GTA7102      0.0000
     54 H          85.6870   29.9253   39.3342 H     7102  GTA7102      0.0000
     55 H          86.2022   26.8096   41.0670 H     7102  GTA7102      0.0000
     56 H          82.2451   24.0016   41.0203 H     7102  GTA7102      0.0000
     57 H          84.9499   26.5316   44.4917 H     7102  GTA7102      0.0000
     58 H          82.6796   26.4092   42.9295 H     7102  GTA7102      0.0000
     59 H          83.8832   25.3647   41.0925 H     7102  GTA7102      0.0000
     60 H          84.9415   23.3797   43.1942 H     7102  GTA7102      0.0000
     61 H          85.4419   22.7373   40.8559 H     7102  GTA7102      0.0000
     62 H          86.9228   23.2281   41.7240 H     7102  GTA7102      0.0000
     63 H          82.4486   24.2717   44.0643 H     7102  GTA7102      0.0000
     64 H          84.5302   25.2271   33.8120 H     7102  GTA7102      0.0000
     65 H          83.1097   26.2333   33.3778 H     7102  GTA7102      0.0000
     66 H          83.6803   24.6071   31.5770 H     7102  GTA7102      0.0000
     67 H          81.0061   24.1104   33.0440 H     7102  GTA7102      0.0000
     68 H          81.3669   24.9569   30.4007 H     7102  GTA7102      0.0000
     69 H          80.5995   22.3401   31.4723 H     7102  GTA7102      0.0000
     70 H          81.8538   22.0275   29.6633 H     7102  GTA7102      0.0000
     71 H          83.1637   21.2624   31.6657 H     7102  GTA7102      0.0000
     72 H          82.1075   22.5976   35.1761 H     7102  GTA7102      0.0000
     73 H          80.6826   17.3959   31.5978 H     7102  GTA7102      0.0000
     74 H          82.6612   31.7832   45.4334 H     7102  GTA7102      0.0000
     75 H          82.5025   30.0371   45.9470 H     7102  GTA7102      0.0000
     76 H          79.3941   17.0998   35.8176 H     7102  GTA7102      0.0000
     77 H          79.8888   18.6641   36.6530 H     7102  GTA7102      0.0000
     78 H          83.7895   32.2558   43.6584 H     7102  GTA7102      0.0000
     79 H          87.9816   23.6689   37.4086 H     7102  GTA7102      0.0000
@<TRIPOS>BOND
     1     1    11    1
     2     1    74    1
     3     1    75    1
     4     2     3    2
     5     3     4   ar
     6     3    12   ar
     7     4     5   ar
     8     4     9   ar
     9     5     6    1
    10     5     7   ar
    11     6    52    1
    12     6    53    1
    13     6    54    1
    14     7     8   ar
    15     7    55    1
    16     8     9   ar
    17     8    14    1
    18     9    10   ar
    19    10    11   ar
    20    11    12   ar
    21    12    78    1
    22    13    16    1
    23    13    56    1
    24    14    15    1
    25    14    19    1
    26    14    57    1
    27    15    16    1
    28    15    20    1
    29    15    58    1
    30    16    17    1
    31    16    59    1
    32    17    18    1
    33    17    19    1
    34    17    60    1
    35    18    25    1
    36    18    61    1
    37    18    62    1
    38    20    63    1
    39    21    22    1
    40    21    23    2
    41    21    24    1
    42    21    25    1
    43    24    26    1
    44    26    27    2
    45    26    28    2
    46    26    29    1
    47    29    30    1
    48    30    31    2
    49    30    32    2
    50    30    33    1
    51    33    34    1
    52    34    35    1
    53    34    64    1
    54    34    65    1
    55    35    36    1
    56    35    37    1
    57    35    66    1
    58    36    41    1
    59    37    38    1
    60    37    39    1
    61    37    67    1
    62    38    68    1
    63    39    40    1
    64    39    41    1
    65    39    69    1
    66    40    70    1
    67    41    42    1
    68    41    71    1
    69    42    43   ar
    70    42    51   ar
    71    43    44   ar
    72    43    72    1
    73    44    45   ar
    74    45    46   ar
    75    45    51   ar
    76    46    47    1
    77    46    48   ar
    78    47    76    1
    79    47    77    1
    80    48    49   ar
    81    49    50   ar
    82    49    73    1
    83    50    51   ar
    84    22    79    1

