@<TRIPOS>MOLECULE
MGP_1_A_7103
 50 52 0 0 0
SMALL
NO_CHARGES

@<TRIPOS>ATOM
      1 PA         99.1790   40.6210   20.0140 P.3   7103  MGP7103      0.0000
      2 O1A        98.6340   40.0330   21.2750 O.co2 7103  MGP7103      0.0000
      3 O2A        98.5970   40.1820   18.7100 O.co2 7103  MGP7103      0.0000
      4 O3A        99.0660   42.2180   20.0960 O.3   7103  MGP7103      0.0000
      5 O5'       100.7710   40.4280   19.9820 O.3   7103  MGP7103      0.0000
      6 PB         98.3670   43.2850   19.1290 P.3   7103  MGP7103      0.0000
      7 O1B        98.6390   44.6570   19.6520 O.co2 7103  MGP7103      0.0000
      8 O2B        98.7320   42.9480   17.7180 O.co2 7103  MGP7103      0.0000
      9 O3B        96.8170   42.9410   19.3640 O.3   7103  MGP7103      0.0000
     10 PC         95.9660   42.2530   20.5630 P.3   7103  MGP7103      0.0000
     11 O1C        95.9370   40.7720   20.2620 O.co2 7103  MGP7103     -0.5000
     12 O2C        96.7000   42.5730   21.8440 O.co2 7103  MGP7103     -0.5000
     13 O3C        94.5930   42.8790   20.5110 O.co2 7103  MGP7103      0.0000
     14 C5'       101.5100   40.8340   18.7990 C.3   7103  MGP7103      0.0000
     15 C4'       102.6590   39.8810   18.5780 C.3   7103  MGP7103      0.0000
     16 O4'       102.4490   38.6850   19.3800 O.3   7103  MGP7103      0.0000
     17 C3'       102.8320   39.3640   17.1430 C.3   7103  MGP7103      0.0000
     18 O3'       103.5790   40.2670   16.3370 O.3   7103  MGP7103      0.0000
     19 C2'       103.4940   38.0230   17.3890 C.3   7103  MGP7103      0.0000
     20 O2'       104.8550   38.1070   17.7530 O.3   7103  MGP7103      0.0000
     21 C1'       102.7130   37.5410   18.6020 C.3   7103  MGP7103      0.0000
     22 N9        101.4510   36.8680   18.2390 N.ar  7103  MGP7103      0.0000
     23 C8        100.2280   37.2090   18.6390 C.ar  7103  MGP7103      0.0000
     24 N7         99.3230   36.5210   17.9500 N.ar  7103  MGP7103      0.0000
     25 CM7        97.8740   36.7140   18.0330 C.3   7103  MGP7103      0.0000
     26 C5         99.9980   35.5820   17.1760 C.ar  7103  MGP7103      0.0000
     27 C6         99.5450   34.5620   16.3390 C.ar  7103  MGP7103      0.0000
     28 O6         98.3920   34.2510   16.0680 O.2   7103  MGP7103      0.0000
     29 N1        100.6050   33.8770   15.7860 N.ar  7103  MGP7103      0.0000
     30 C2        101.9300   34.1350   16.0080 C.ar  7103  MGP7103      0.0000
     31 N2        102.8130   33.3530   15.3820 N.pl3 7103  MGP7103      0.0000
     32 N3        102.3460   35.0980   16.8090 N.ar  7103  MGP7103      0.0000
     33 C4        101.3390   35.7950   17.3770 C.ar  7103  MGP7103      0.0000
     34 H         101.8799   41.8716   18.9334 H     7103  MGP7103      0.0000
     35 H         100.8522   40.8434   17.9069 H     7103  MGP7103      0.0000
     36 H         103.6036   40.3589   18.9169 H     7103  MGP7103      0.0000
     37 H         101.8310   39.1959   16.6878 H     7103  MGP7103      0.0000
     38 H         103.4152   40.0613   15.4263 H     7103  MGP7103      0.0000
     39 H         103.3885   37.3564   16.5108 H     7103  MGP7103      0.0000
     40 H         105.2404   38.7994   17.2290 H     7103  MGP7103      0.0000
     41 H         103.3008   36.8084   19.1947 H     7103  MGP7103      0.0000
     42 H          99.9187   37.9923   19.3363 H     7103  MGP7103      0.0000
     43 H          97.3555   35.7582   18.2658 H     7103  MGP7103      0.0000
     44 H          97.4710   37.0921   17.0677 H     7103  MGP7103      0.0000
     45 H          97.5848   37.4424   18.8215 H     7103  MGP7103      0.0000
     46 H         103.7956   33.5767   15.5809 H     7103  MGP7103      0.0000
     47 H         102.4858   32.6012   14.7632 H     7103  MGP7103      0.0000
     48 H         100.4256   33.0955   15.1453 H     7103  MGP7103      0.0000
     49 H          97.5150   40.1955   21.3381 H     7103  MGP7103      0.0000
     50 H          94.0983   42.6711   19.5150 H     7103  MGP7103      0.0000
@<TRIPOS>BOND
     1     1     2    1
     2     1     3    2
     3     1     4    1
     4     1     5    1
     5     4     6    1
     6     5    14    1
     7     6     7    2
     8     6     8    2
     9     6     9    1
    10     9    10    1
    11    10    11   ar
    12    10    12   ar
    13    10    13    1
    14    14    15    1
    15    14    34    1
    16    14    35    1
    17    15    16    1
    18    15    17    1
    19    15    36    1
    20    16    21    1
    21    17    18    1
    22    17    19    1
    23    17    37    1
    24    18    38    1
    25    19    20    1
    26    19    21    1
    27    19    39    1
    28    20    40    1
    29    21    22    1
    30    21    41    1
    31    22    23   ar
    32    22    33   ar
    33    23    24   ar
    34    23    42    1
    35    24    25    1
    36    24    26   ar
    37    25    43    1
    38    25    44    1
    39    25    45    1
    40    26    27   ar
    41    26    33   ar
    42    27    28    2
    43    27    29   ar
    44    29    30   ar
    45    29    48    1
    46    30    31    1
    47    30    32   ar
    48    31    46    1
    49    31    47    1
    50    32    33   ar
    51     2    49    1
    52    13    50    1

