MGP_1_A_7103
  -ISIS-            3D

 50 52  0  0  0  0  0  0  0  0  1 V2000
   99.1790   40.6210   20.0140 P   0  0  0  0  0
   98.6340   40.0330   21.2750 O   0  0  0  0  0
   98.5970   40.1820   18.7100 O   0  0  0  0  0
   99.0660   42.2180   20.0960 O   0  0  0  0  0
  100.7710   40.4280   19.9820 O   0  0  0  0  0
   98.3670   43.2850   19.1290 P   0  0  0  0  0
   98.6390   44.6570   19.6520 O   0  0  0  0  0
   98.7320   42.9480   17.7180 O   0  0  0  0  0
   96.8170   42.9410   19.3640 O   0  0  0  0  0
   95.9660   42.2530   20.5630 P   0  0  0  0  0
   95.9370   40.7720   20.2620 O   0  0  0  0  0
   96.7000   42.5730   21.8440 O   0  0  0  0  0
   94.5930   42.8790   20.5110 O   0  0  0  0  0
  101.5100   40.8340   18.7990 C   0  0  0  0  0
  102.6590   39.8810   18.5780 C   0  0  0  0  0
  102.4490   38.6850   19.3800 O   0  0  0  0  0
  102.8320   39.3640   17.1430 C   0  0  0  0  0
  103.5790   40.2670   16.3370 O   0  0  0  0  0
  103.4940   38.0230   17.3890 C   0  0  0  0  0
  104.8550   38.1070   17.7530 O   0  0  0  0  0
  102.7130   37.5410   18.6020 C   0  0  0  0  0
  101.4510   36.8680   18.2390 N   0  0  0  0  0
  100.2280   37.2090   18.6390 C   0  0  0  0  0
   99.3230   36.5210   17.9500 N   0  0  0  0  0
   97.8740   36.7140   18.0330 C   0  0  0  0  0
   99.9980   35.5820   17.1760 C   0  0  0  0  0
   99.5450   34.5620   16.3390 C   0  0  0  0  0
   98.3920   34.2510   16.0680 O   0  0  0  0  0
  100.6050   33.8770   15.7860 N   0  0  0  0  0
  101.9300   34.1350   16.0080 C   0  0  0  0  0
  102.8130   33.3530   15.3820 N   0  0  0  0  0
  102.3460   35.0980   16.8090 N   0  0  0  0  0
  101.3390   35.7950   17.3770 C   0  0  0  0  0
  101.8799   41.8716   18.9334 H   0  0  0  0  0
  100.8522   40.8434   17.9069 H   0  0  0  0  0
  103.6036   40.3589   18.9169 H   0  0  0  0  0
  101.8310   39.1959   16.6878 H   0  0  0  0  0
  103.4152   40.0613   15.4263 H   0  0  0  0  0
  103.3885   37.3564   16.5108 H   0  0  0  0  0
  105.2404   38.7994   17.2290 H   0  0  0  0  0
  103.3008   36.8084   19.1947 H   0  0  0  0  0
   99.9187   37.9923   19.3363 H   0  0  0  0  0
   97.3555   35.7582   18.2658 H   0  0  0  0  0
   97.4710   37.0921   17.0677 H   0  0  0  0  0
   97.5848   37.4424   18.8215 H   0  0  0  0  0
  103.7956   33.5767   15.5809 H   0  0  0  0  0
  102.4858   32.6012   14.7632 H   0  0  0  0  0
  100.4256   33.0955   15.1453 H   0  0  0  0  0
   97.5150   40.1955   21.3381 H   0  0  0  0  0
   94.0983   42.6711   19.5150 H   0  0  0  0  0
  1  2  1  0  0  0
  1  3  2  0  0  0
  1  4  1  0  0  0
  1  5  1  0  0  0
  4  6  1  0  0  0
  5 14  1  0  0  0
  6  7  2  0  0  0
  6  8  2  0  0  0
  6  9  1  0  0  0
  9 10  1  0  0  0
 10 11  2  0  0  0
 10 12  2  0  0  0
 10 13  1  0  0  0
 14 15  1  0  0  0
 14 34  1  0  0  0
 14 35  1  0  0  0
 15 16  1  0  0  0
 15 17  1  0  0  0
 15 36  1  0  0  0
 16 21  1  0  0  0
 17 18  1  0  0  0
 17 19  1  0  0  0
 17 37  1  0  0  0
 18 38  1  0  0  0
 19 20  1  0  0  0
 19 21  1  0  0  0
 19 39  1  0  0  0
 20 40  1  0  0  0
 21 22  1  0  0  0
 21 41  1  0  0  0
 22 23  1  0  0  0
 22 33  1  0  0  0
 23 24  2  0  0  0
 23 42  1  0  0  0
 24 25  1  0  0  0
 24 26  1  0  0  0
 25 43  1  0  0  0
 25 44  1  0  0  0
 25 45  1  0  0  0
 26 27  1  0  0  0
 26 33  2  0  0  0
 27 28  2  0  0  0
 27 29  1  0  0  0
 29 30  1  0  0  0
 29 48  1  0  0  0
 30 31  1  0  0  0
 30 32  2  0  0  0
 31 46  1  0  0  0
 31 47  1  0  0  0
 32 33  1  0  0  0
  2 49  1  0  0  0
 13 50  1  0  0  0
M  END
$$$$
