@<TRIPOS>MOLECULE
DMS_1_A_403
 10 9 0 0 0
SMALL
NO_CHARGES

@<TRIPOS>ATOM
      1 S           2.4510  -18.7810    8.0190 S.o    403  DMS403      0.0000
      2 O           3.6520  -18.8240    8.9890 O.2    403  DMS403      0.0000
      3 C1          1.0900  -18.0870    8.9310 C.3    403  DMS403      0.0000
      4 C2          1.8450  -20.4460    7.9930 C.3    403  DMS403      0.0000
      5 H           0.1528  -18.1891    8.3466 H      403  DMS403      0.0000
      6 H           1.2834  -17.0096    9.1106 H      403  DMS403      0.0000
      7 H           0.9758  -18.5997    9.9081 H      403  DMS403      0.0000
      8 H           0.8832  -20.4896    7.4422 H      403  DMS403      0.0000
      9 H           1.6971  -20.8229    9.0258 H      403  DMS403      0.0000
     10 H           2.5810  -21.0949    7.4756 H      403  DMS403      0.0000
@<TRIPOS>BOND
     1     1     2    2
     2     1     3    1
     3     1     4    1
     4     3     5    1
     5     3     6    1
     6     3     7    1
     7     4     8    1
     8     4     9    1
     9     4    10    1

