DMS_1_A_403
  -ISIS-            3D

 10  9  0  0  0  0  0  0  0  0  1 V2000
    2.4510  -18.7810    8.0190 S   0  0  0  0  0
    3.6520  -18.8240    8.9890 O   0  0  0  0  0
    1.0900  -18.0870    8.9310 C   0  0  0  0  0
    1.8450  -20.4460    7.9930 C   0  0  0  0  0
    0.1528  -18.1891    8.3466 H   0  0  0  0  0
    1.2834  -17.0096    9.1106 H   0  0  0  0  0
    0.9758  -18.5997    9.9081 H   0  0  0  0  0
    0.8832  -20.4896    7.4422 H   0  0  0  0  0
    1.6971  -20.8229    9.0258 H   0  0  0  0  0
    2.5810  -21.0949    7.4756 H   0  0  0  0  0
  1  2  2  0  0  0
  1  3  1  0  0  0
  1  4  1  0  0  0
  3  5  1  0  0  0
  3  6  1  0  0  0
  3  7  1  0  0  0
  4  8  1  0  0  0
  4  9  1  0  0  0
  4 10  1  0  0  0
M  END
$$$$
