@<TRIPOS>MOLECULE
DMS_1_A_406
 10 9 0 0 0
SMALL
NO_CHARGES

@<TRIPOS>ATOM
      1 S           8.5570   -4.6200   24.8620 S.o    406  DMS406      0.0000
      2 O           9.4970   -5.7910   24.8920 O.2    406  DMS406      0.0000
      3 C1          9.4540   -3.2920   24.1020 C.3    406  DMS406      0.0000
      4 C2          8.5260   -3.9780   26.5140 C.3    406  DMS406      0.0000
      5 H           8.8710   -2.3514   24.1788 H      406  DMS406      0.0000
      6 H           9.6160   -3.5256   23.0298 H      406  DMS406      0.0000
      7 H          10.4388   -3.1578   24.5947 H      406  DMS406      0.0000
      8 H           7.9645   -3.0216   26.5359 H      406  DMS406      0.0000
      9 H           9.5582   -3.8090   26.8835 H      406  DMS406      0.0000
     10 H           8.0189   -4.7054   27.1805 H      406  DMS406      0.0000
@<TRIPOS>BOND
     1     1     2    2
     2     1     3    1
     3     1     4    1
     4     3     5    1
     5     3     6    1
     6     3     7    1
     7     4     8    1
     8     4     9    1
     9     4    10    1

