DMS_1_A_401
  -ISIS-            3D

 10  9  0  0  0  0  0  0  0  0  1 V2000
    7.1110  -28.0810   21.5370 S   0  0  0  0  0
    7.7630  -27.0360   22.3260 O   0  0  0  0  0
    5.8320  -28.7480   22.5710 C   0  0  0  0  0
    6.0810  -27.2860   20.3490 C   0  0  0  0  0
    5.2150  -29.4648   21.9916 H   0  0  0  0  0
    5.1854  -27.9346   22.9601 H   0  0  0  0  0
    6.2928  -29.2832   23.4264 H   0  0  0  0  0
    5.4631  -28.0401   19.8202 H   0  0  0  0  0
    6.7147  -26.7597   19.6061 H   0  0  0  0  0
    5.4174  -26.5470   20.8436 H   0  0  0  0  0
  1  2  2  0  0  0
  1  3  1  0  0  0
  1  4  1  0  0  0
  3  5  1  0  0  0
  3  6  1  0  0  0
  3  7  1  0  0  0
  4  8  1  0  0  0
  4  9  1  0  0  0
  4 10  1  0  0  0
M  END
$$$$
