@<TRIPOS>MOLECULE
DMS_1_A_402
 10 9 0 0 0
SMALL
NO_CHARGES

@<TRIPOS>ATOM
      1 S           6.2190   -1.0390   -6.3540 S.o    402  DMS402      0.0000
      2 O           7.2390   -0.8690   -7.4240 O.2    402  DMS402      0.0000
      3 C1          7.0670   -0.9470   -4.7700 C.3    402  DMS402      0.0000
      4 C2          5.7580   -2.7480   -6.2940 C.3    402  DMS402      0.0000
      5 H           6.3548   -1.1735   -3.9503 H      402  DMS402      0.0000
      6 H           7.4657    0.0783   -4.6286 H      402  DMS402      0.0000
      7 H           7.9071   -1.6706   -4.7434 H      402  DMS402      0.0000
      8 H           5.0806   -2.9254   -5.4336 H      402  DMS402      0.0000
      9 H           6.6592   -3.3866   -6.1929 H      402  DMS402      0.0000
     10 H           5.2270   -3.0180   -7.2297 H      402  DMS402      0.0000
@<TRIPOS>BOND
     1     1     2    2
     2     1     3    1
     3     1     4    1
     4     3     5    1
     5     3     6    1
     6     3     7    1
     7     4     8    1
     8     4     9    1
     9     4    10    1

