@<TRIPOS>MOLECULE
DMS_1_A_403
 10 9 0 0 0
SMALL
NO_CHARGES

@<TRIPOS>ATOM
      1 S           2.4650  -18.7480    8.0680 S.o    403  DMS403      0.0000
      2 O           3.7050  -18.8220    8.9910 O.2    403  DMS403      0.0000
      3 C1          1.1280  -18.2270    9.1100 C.3    403  DMS403      0.0000
      4 C2          1.9540  -20.4140    7.8810 C.3    403  DMS403      0.0000
      5 H           0.1670  -18.3129    8.5628 H      403  DMS403      0.0000
      6 H           1.2809  -17.1666    9.3974 H      403  DMS403      0.0000
      7 H           1.0870  -18.8462   10.0296 H      403  DMS403      0.0000
      8 H           0.9724  -20.4541    7.3660 H      403  DMS403      0.0000
      9 H           1.8719  -20.9119    8.8690 H      403  DMS403      0.0000
     10 H           2.6989  -20.9597    7.2664 H      403  DMS403      0.0000
@<TRIPOS>BOND
     1     1     2    2
     2     1     3    1
     3     1     4    1
     4     3     5    1
     5     3     6    1
     6     3     7    1
     7     4     8    1
     8     4     9    1
     9     4    10    1

