@<TRIPOS>MOLECULE
ATP_1_A_201
 45 47 0 0 0
SMALL
NO_CHARGES

@<TRIPOS>ATOM
      1 PG          6.0720    9.4830   10.3990 P.3    201  ATP201      0.0000
      2 O1G         6.4250    9.8180    8.9660 O.co2  201  ATP201     -0.5000
      3 O2G         7.3600    9.1700   11.1520 O.co2  201  ATP201     -0.5000
      4 O3G         5.3840   10.6680   11.0440 O.co2  201  ATP201      0.0000
      5 PB          4.7320    7.1470   11.6520 P.3    201  ATP201      0.0000
      6 O1B         5.9570    6.8850   12.4700 O.co2  201  ATP201      0.0000
      7 O2B         3.7370    7.7970   12.5580 O.co2  201  ATP201      0.0000
      8 O3B         5.0740    8.1580   10.3620 O.3    201  ATP201      0.0000
      9 PA          4.9900    4.2530   11.6360 P.3    201  ATP201      0.0000
     10 O1A         4.3430    3.1100   10.8790 O.co2  201  ATP201      0.0000
     11 O2A         4.7100    4.0180   13.1060 O.co2  201  ATP201      0.0000
     12 O3A         4.2620    5.6510   11.1290 O.3    201  ATP201      0.0000
     13 O5'         6.6330    4.2480   11.2990 O.3    201  ATP201      0.0000
     14 C5'         7.5530    3.4550   12.0650 C.3    201  ATP201      0.0000
     15 C4'         8.9160    4.1310   12.2120 C.3    201  ATP201      0.0000
     16 O4'         9.6120    3.9960   11.1150 O.3    201  ATP201      0.0000
     17 C3'         8.7900    5.7690   12.4810 C.3    201  ATP201      0.0000
     18 O3'         9.8250    6.1980   13.4430 O.3    201  ATP201      0.0000
     19 C2'         8.8710    6.3370   11.3580 C.3    201  ATP201      0.0000
     20 O2'         9.4550    7.7330   11.3680 O.3    201  ATP201      0.0000
     21 C1'         9.7700    5.3690   10.4740 C.3    201  ATP201      0.0000
     22 N9          9.3120    5.3910    9.2120 N.ar   201  ATP201      0.0000
     23 C8          8.2430    5.9940    8.6860 C.ar   201  ATP201      0.0000
     24 N7          8.2310    5.7040    7.3740 N.ar   201  ATP201      0.0000
     25 C5          9.3020    4.9240    7.1000 C.ar   201  ATP201      0.0000
     26 C6          9.7580    4.3460    5.9270 C.ar   201  ATP201      0.0000
     27 N6          9.3200    4.3120    4.5490 N.3    201  ATP201      0.0000
     28 N1         10.8650    3.6080    5.9420 N.ar   201  ATP201      0.0000
     29 C2         11.5520    3.4120    7.0920 C.ar   201  ATP201      0.0000
     30 N3         11.1080    3.9770    8.2480 N.ar   201  ATP201      0.0000
     31 C4          9.9820    4.7280    8.2370 C.ar   201  ATP201      0.0000
     32 H           7.6583    2.4561   11.5931 H      201  ATP201      0.0000
     33 H           7.1414    3.2820   13.0812 H      201  ATP201      0.0000
     34 H           9.4625    3.6637   13.0581 H      201  ATP201      0.0000
     35 H           7.8263    5.9389   12.9956 H      201  ATP201      0.0000
     36 H           9.9884    7.1204   13.2822 H      201  ATP201      0.0000
     37 H           7.8519    6.3876   10.9344 H      201  ATP201      0.0000
     38 H           9.0503    8.2292   10.6682 H      201  ATP201      0.0000
     39 H          10.8345    5.6841   10.5025 H      201  ATP201      0.0000
     40 H           7.4307    6.6278    9.0581 H      201  ATP201      0.0000
     41 H           9.9035    3.7684    3.9013 H      201  ATP201      0.0000
     42 H           8.4610    4.8356    4.3364 H      201  ATP201      0.0000
     43 H          12.4666    2.7991    7.0931 H      201  ATP201      0.0000
     44 H           6.5201    7.8516   12.6548 H      201  ATP201      0.0000
     45 H           4.9946   10.3798   12.0670 H      201  ATP201      0.0000
@<TRIPOS>BOND
     1     1     2   ar
     2     1     3   ar
     3     1     4    1
     4     1     8    1
     5     5     6    1
     6     5     7    2
     7     5     8    1
     8     5    12    1
     9     9    10    2
    10     9    11    2
    11     9    12    1
    12     9    13    1
    13    13    14    1
    14    14    15    1
    15    14    32    1
    16    14    33    1
    17    15    16    1
    18    15    17    1
    19    15    34    1
    20    16    21    1
    21    17    18    1
    22    17    19    1
    23    17    35    1
    24    18    36    1
    25    19    20    1
    26    19    21    1
    27    19    37    1
    28    20    38    1
    29    21    22    1
    30    21    39    1
    31    22    23   ar
    32    22    31   ar
    33    23    24   ar
    34    23    40    1
    35    24    25   ar
    36    25    26   ar
    37    25    31   ar
    38    26    27    1
    39    26    28   ar
    40    27    41    1
    41    27    42    1
    42    28    29   ar
    43    29    30   ar
    44    29    43    1
    45    30    31   ar
    46     6    44    1
    47     4    45    1

