APR_1_A_201
  -ISIS-            3D

 58 61  0  0  0  0  0  0  0  0  1 V2000
   -1.7150   -2.0230   20.3370 N   0  0  0  0  0
   -2.0490   -1.5950   19.0630 C   0  0  0  0  0
   -2.9890   -0.6950   18.7640 N   0  0  0  0  0
   -3.5000   -0.0010   19.7860 C   0  0  0  0  0
   -3.1460   -0.3290   21.1810 C   0  0  0  0  0
   -2.1610   -1.3840   21.4020 C   0  0  0  0  0
   -1.8250   -1.6750   22.6990 N   0  0  0  0  0
   -3.8590    0.5100   22.0390 N   0  0  0  0  0
   -4.5930    1.3290   21.2350 C   0  0  0  0  0
   -4.4530    0.9690   19.9160 N   0  0  0  0  0
   -5.0080    1.6020   18.6880 C   0  0  0  0  0
   -6.1930    2.5500   18.9490 C   0  0  0  0  0
   -7.4910    1.8230   19.0710 O   0  0  0  0  0
   -6.0520    3.4010   17.7350 C   0  0  0  0  0
   -6.5630    2.7320   16.5040 O   0  0  0  0  0
   -3.9630    2.4820   18.2000 O   0  0  0  0  0
   -4.5320    3.6700   17.5270 C   0  0  0  0  0
   -3.9650    4.9000   18.1110 C   0  0  0  0  0
   -4.9110    5.2220   19.1600 O   0  0  0  0  0
   -4.5650    6.1510   20.4510 P   0  0  0  0  0
   -3.7010    5.4470   21.4130 O   0  0  0  0  0
   -5.9290    6.6560   20.9890 O   0  0  0  0  0
   -3.6870    7.2780   19.7470 O   0  0  0  0  0
   -4.0410    8.7240   19.0630 P   0  0  0  0  0
   -5.3910    8.6840   18.3640 O   0  0  0  0  0
   -2.7370    9.2070   18.3730 O   0  0  0  0  0
   -4.3430    9.6060   20.4280 O   0  0  0  0  0
   -3.2350   10.0060   21.2720 C   0  0  0  0  0
   -4.4910    9.5730   23.1890 O   0  0  0  0  0
   -3.4510    8.0600   24.7750 O   0  0  0  0  0
   -3.7780    9.4250   24.4790 C   0  0  0  0  0
   -1.9940   10.5310   25.6050 O   0  0  0  0  0
   -2.4380   10.1820   24.2590 C   0  0  0  0  0
   -3.5580   12.3240   24.1740 O   0  0  0  0  0
   -2.8660   11.2980   23.3790 C   0  0  0  0  0
   -3.8850   10.6530   22.5100 C   0  0  0  0  0
   -1.6053   -2.1530   18.2217 H   0  0  0  0  0
   -5.2471    2.1472   21.5571 H   0  0  0  0  0
   -5.2639    0.8441   17.9184 H   0  0  0  0  0
   -6.0289    3.1652   19.8554 H   0  0  0  0  0
   -7.4957    1.3745   19.9060 H   0  0  0  0  0
   -6.6164    4.3498   17.8525 H   0  0  0  0  0
   -7.3741    2.3045   16.7543 H   0  0  0  0  0
   -4.2772    3.6228   16.4472 H   0  0  0  0  0
   -3.9424    5.7273   17.3721 H   0  0  0  0  0
   -2.9421    4.7455   18.5103 H   0  0  0  0  0
   -2.6041   10.7411   20.7304 H   0  0  0  0  0
   -2.6071    9.1320   21.5414 H   0  0  0  0  0
   -4.2597    7.5670   24.7989 H   0  0  0  0  0
   -4.3792    9.8762   25.2934 H   0  0  0  0  0
   -1.7878    9.7175   26.0476 H   0  0  0  0  0
   -1.6889    9.5403   23.7514 H   0  0  0  0  0
   -3.0902   12.3849   24.9995 H   0  0  0  0  0
   -2.0258   11.7564   22.8207 H   0  0  0  0  0
   -4.6509   11.3879   22.1846 H   0  0  0  0  0
   -2.2682   -1.0949   23.4241 H   0  0  0  0  0
   -1.1596   -2.4484   22.8213 H   0  0  0  0  0
   -4.1465    4.4410   21.6777 H   0  0  0  0  0
  1  2  1  0  0  0
  1  6  1  0  0  0
  2  3  1  0  0  0
  2 37  1  0  0  0
  3  4  1  0  0  0
  4  5  1  0  0  0
  4 10  2  0  0  0
  5  6  1  0  0  0
  5  8  1  0  0  0
  6  7  1  0  0  0
  7 56  1  0  0  0
  7 57  1  0  0  0
  8  9  2  0  0  0
  9 10  1  0  0  0
  9 38  1  0  0  0
 10 11  1  0  0  0
 11 12  1  0  0  0
 11 16  1  0  0  0
 11 39  1  0  0  0
 12 13  1  0  0  0
 12 14  1  0  0  0
 12 40  1  0  0  0
 13 41  1  0  0  0
 14 15  1  0  0  0
 14 17  1  0  0  0
 14 42  1  0  0  0
 15 43  1  0  0  0
 16 17  1  0  0  0
 17 18  1  0  0  0
 17 44  1  0  0  0
 18 19  1  0  0  0
 18 45  1  0  0  0
 18 46  1  0  0  0
 19 20  1  0  0  0
 20 21  1  0  0  0
 20 22  2  0  0  0
 20 23  1  0  0  0
 23 24  1  0  0  0
 24 25  2  0  0  0
 24 26  2  0  0  0
 24 27  1  0  0  0
 27 28  1  0  0  0
 28 36  1  0  0  0
 28 47  1  0  0  0
 28 48  1  0  0  0
 29 31  1  0  0  0
 29 36  1  0  0  0
 30 31  1  0  0  0
 30 49  1  0  0  0
 31 33  1  0  0  0
 31 50  1  0  0  0
 32 33  1  0  0  0
 32 51  1  0  0  0
 33 35  1  0  0  0
 33 52  1  0  0  0
 34 35  1  0  0  0
 34 53  1  0  0  0
 35 36  1  0  0  0
 35 54  1  0  0  0
 36 55  1  0  0  0
 21 58  1  0  0  0
M  END
$$$$
