@<TRIPOS>MOLECULE
APR_1_A_201
 58 61 0 0 0
SMALL
NO_CHARGES

@<TRIPOS>ATOM
      1 N1         -1.7150   -2.0230   20.3370 N.ar   201  APR201      0.0000
      2 C2         -2.0490   -1.5950   19.0630 C.ar   201  APR201      0.0000
      3 N3         -2.9890   -0.6950   18.7640 N.ar   201  APR201      0.0000
      4 C4         -3.5000   -0.0010   19.7860 C.ar   201  APR201      0.0000
      5 C5         -3.1460   -0.3290   21.1810 C.ar   201  APR201      0.0000
      6 C6         -2.1610   -1.3840   21.4020 C.ar   201  APR201      0.0000
      7 N6         -1.8250   -1.6750   22.6990 N.pl3  201  APR201      0.0000
      8 N7         -3.8590    0.5100   22.0390 N.ar   201  APR201      0.0000
      9 C8         -4.5930    1.3290   21.2350 C.ar   201  APR201      0.0000
     10 N9         -4.4530    0.9690   19.9160 N.ar   201  APR201      0.0000
     11 C1'        -5.0080    1.6020   18.6880 C.3    201  APR201      0.0000
     12 C2'        -6.1930    2.5500   18.9490 C.3    201  APR201      0.0000
     13 O2'        -7.4910    1.8230   19.0710 O.3    201  APR201      0.0000
     14 C3'        -6.0520    3.4010   17.7350 C.3    201  APR201      0.0000
     15 O3'        -6.5630    2.7320   16.5040 O.3    201  APR201      0.0000
     16 O4'        -3.9630    2.4820   18.2000 O.3    201  APR201      0.0000
     17 C4'        -4.5320    3.6700   17.5270 C.3    201  APR201      0.0000
     18 C5'        -3.9650    4.9000   18.1110 C.3    201  APR201      0.0000
     19 O5'        -4.9110    5.2220   19.1600 O.3    201  APR201      0.0000
     20 PA         -4.5650    6.1510   20.4510 P.3    201  APR201      0.0000
     21 O1A        -3.7010    5.4470   21.4130 O.co2  201  APR201      0.0000
     22 O2A        -5.9290    6.6560   20.9890 O.co2  201  APR201      0.0000
     23 O3A        -3.6870    7.2780   19.7470 O.3    201  APR201      0.0000
     24 PB         -4.0410    8.7240   19.0630 P.3    201  APR201      0.0000
     25 O1B        -5.3910    8.6840   18.3640 O.co2  201  APR201      0.0000
     26 O2B        -2.7370    9.2070   18.3730 O.co2  201  APR201      0.0000
     27 O5D        -4.3430    9.6060   20.4280 O.3    201  APR201      0.0000
     28 C5D        -3.2350   10.0060   21.2720 C.3    201  APR201      0.0000
     29 O4D        -4.4910    9.5730   23.1890 O.3    201  APR201      0.0000
     30 O1D        -3.4510    8.0600   24.7750 O.3    201  APR201      0.0000
     31 C1D        -3.7780    9.4250   24.4790 C.3    201  APR201      0.0000
     32 O2D        -1.9940   10.5310   25.6050 O.3    201  APR201      0.0000
     33 C2D        -2.4380   10.1820   24.2590 C.3    201  APR201      0.0000
     34 O3D        -3.5580   12.3240   24.1740 O.3    201  APR201      0.0000
     35 C3D        -2.8660   11.2980   23.3790 C.3    201  APR201      0.0000
     36 C4D        -3.8850   10.6530   22.5100 C.3    201  APR201      0.0000
     37 H          -1.6053   -2.1530   18.2217 H      201  APR201      0.0000
     38 H          -5.2471    2.1472   21.5571 H      201  APR201      0.0000
     39 H          -5.2639    0.8441   17.9184 H      201  APR201      0.0000
     40 H          -6.0289    3.1652   19.8554 H      201  APR201      0.0000
     41 H          -7.4957    1.3745   19.9060 H      201  APR201      0.0000
     42 H          -6.6164    4.3498   17.8525 H      201  APR201      0.0000
     43 H          -7.3741    2.3045   16.7543 H      201  APR201      0.0000
     44 H          -4.2772    3.6228   16.4472 H      201  APR201      0.0000
     45 H          -3.9424    5.7273   17.3721 H      201  APR201      0.0000
     46 H          -2.9421    4.7455   18.5103 H      201  APR201      0.0000
     47 H          -2.6041   10.7411   20.7304 H      201  APR201      0.0000
     48 H          -2.6071    9.1320   21.5414 H      201  APR201      0.0000
     49 H          -4.2597    7.5670   24.7989 H      201  APR201      0.0000
     50 H          -4.3792    9.8762   25.2934 H      201  APR201      0.0000
     51 H          -1.7878    9.7175   26.0476 H      201  APR201      0.0000
     52 H          -1.6889    9.5403   23.7514 H      201  APR201      0.0000
     53 H          -3.0902   12.3849   24.9995 H      201  APR201      0.0000
     54 H          -2.0258   11.7564   22.8207 H      201  APR201      0.0000
     55 H          -4.6509   11.3879   22.1846 H      201  APR201      0.0000
     56 H          -2.2682   -1.0949   23.4241 H      201  APR201      0.0000
     57 H          -1.1596   -2.4484   22.8213 H      201  APR201      0.0000
     58 H          -4.1465    4.4410   21.6777 H      201  APR201      0.0000
@<TRIPOS>BOND
     1     1     2   ar
     2     1     6   ar
     3     2     3   ar
     4     2    37    1
     5     3     4   ar
     6     4     5   ar
     7     4    10   ar
     8     5     6   ar
     9     5     8   ar
    10     6     7    1
    11     7    56    1
    12     7    57    1
    13     8     9   ar
    14     9    10   ar
    15     9    38    1
    16    10    11    1
    17    11    12    1
    18    11    16    1
    19    11    39    1
    20    12    13    1
    21    12    14    1
    22    12    40    1
    23    13    41    1
    24    14    15    1
    25    14    17    1
    26    14    42    1
    27    15    43    1
    28    16    17    1
    29    17    18    1
    30    17    44    1
    31    18    19    1
    32    18    45    1
    33    18    46    1
    34    19    20    1
    35    20    21    1
    36    20    22    2
    37    20    23    1
    38    23    24    1
    39    24    25    2
    40    24    26    2
    41    24    27    1
    42    27    28    1
    43    28    36    1
    44    28    47    1
    45    28    48    1
    46    29    31    1
    47    29    36    1
    48    30    31    1
    49    30    49    1
    50    31    33    1
    51    31    50    1
    52    32    33    1
    53    32    51    1
    54    33    35    1
    55    33    52    1
    56    34    35    1
    57    34    53    1
    58    35    36    1
    59    35    54    1
    60    36    55    1
    61    21    58    1

