0HN_1_A_201
  -ISIS-            3D

 17 18  0  0  0  0  0  0  0  0  1 V2000
  -51.5570  -29.1850    4.9670 O   0  0  0  0  0
  -50.3210  -29.1070    5.2200 C   0  0  0  0  0
  -49.9610  -29.0780    6.4080 O   0  0  0  0  0
  -49.2450  -29.1450    4.1350 C   0  0  0  0  0
  -47.9020  -29.2820    4.4840 C   0  0  0  0  0
  -46.9230  -29.3680    3.5080 C   0  0  0  0  0
  -45.5140  -29.5170    3.5730 O   0  0  0  0  0
  -45.0640  -29.0470    2.3390 C   0  0  0  0  0
  -46.0930  -29.3840    1.4610 O   0  0  0  0  0
  -47.2800  -29.2800    2.2010 C   0  0  0  0  0
  -48.6210  -29.1300    1.8390 C   0  0  0  0  0
  -49.5970  -29.0630    2.8160 C   0  0  0  0  0
  -47.5977  -29.3375    5.5419 H   0  0  0  0  0
  -44.1161  -29.5363    2.0478 H   0  0  0  0  0
  -44.9138  -27.9496    2.3664 H   0  0  0  0  0
  -48.8924  -29.0676    0.7724 H   0  0  0  0  0
  -50.6530  -28.9490    2.5186 H   0  0  0  0  0
  1  2  2  0  0  0
  2  3  2  0  0  0
  2  4  1  0  0  0
  4  5  2  0  0  0
  4 12  1  0  0  0
  5  6  1  0  0  0
  5 13  1  0  0  0
  6  7  1  0  0  0
  6 10  2  0  0  0
  7  8  1  0  0  0
  8  9  1  0  0  0
  8 14  1  0  0  0
  8 15  1  0  0  0
  9 10  1  0  0  0
 10 11  1  0  0  0
 11 12  2  0  0  0
 11 16  1  0  0  0
 12 17  1  0  0  0
M  END
$$$$
