@<TRIPOS>MOLECULE
0HN_1_A_201
 17 18 0 0 0
SMALL
NO_CHARGES

@<TRIPOS>ATOM
      1 OAA       -51.5570  -29.1850    4.9670 O.co2  201  0HN201     -0.5000
      2 CAI       -50.3210  -29.1070    5.2200 C.2    201  0HN201      0.0000
      3 OAB       -49.9610  -29.0780    6.4080 O.co2  201  0HN201     -0.5000
      4 CAJ       -49.2450  -29.1450    4.1350 C.ar   201  0HN201      0.0000
      5 CAE       -47.9020  -29.2820    4.4840 C.ar   201  0HN201      0.0000
      6 CAL       -46.9230  -29.3680    3.5080 C.ar   201  0HN201      0.0000
      7 OAH       -45.5140  -29.5170    3.5730 O.3    201  0HN201      0.0000
      8 CAF       -45.0640  -29.0470    2.3390 C.3    201  0HN201      0.0000
      9 OAG       -46.0930  -29.3840    1.4610 O.3    201  0HN201      0.0000
     10 CAK       -47.2800  -29.2800    2.2010 C.ar   201  0HN201      0.0000
     11 CAD       -48.6210  -29.1300    1.8390 C.ar   201  0HN201      0.0000
     12 CAC       -49.5970  -29.0630    2.8160 C.ar   201  0HN201      0.0000
     13 H         -47.5977  -29.3375    5.5419 H      201  0HN201      0.0000
     14 H         -44.1161  -29.5363    2.0478 H      201  0HN201      0.0000
     15 H         -44.9138  -27.9496    2.3664 H      201  0HN201      0.0000
     16 H         -48.8924  -29.0676    0.7724 H      201  0HN201      0.0000
     17 H         -50.6530  -28.9490    2.5186 H      201  0HN201      0.0000
@<TRIPOS>BOND
     1     1     2   ar
     2     2     3   ar
     3     2     4    1
     4     4     5   ar
     5     4    12   ar
     6     5     6   ar
     7     5    13    1
     8     6     7    1
     9     6    10   ar
    10     7     8    1
    11     8     9    1
    12     8    14    1
    13     8    15    1
    14     9    10    1
    15    10    11   ar
    16    11    12   ar
    17    11    16    1
    18    12    17    1

