@<TRIPOS>MOLECULE
PZA_1_A_201
 14 14 0 0 0
SMALL
NO_CHARGES

@<TRIPOS>ATOM
      1 C         -49.2920  -29.1500    6.8820 C.2    201  PZA201      0.0000
      2 N1        -48.2610  -29.1660    7.8830 N.3    201  PZA201      0.0000
      3 O         -50.4210  -29.1250    7.1910 O.2    201  PZA201      0.0000
      4 C1        -47.3070  -29.2280    3.7970 C.ar   201  PZA201      0.0000
      5 C2        -48.2830  -29.1750    2.8300 C.ar   201  PZA201      0.0000
      6 N2        -49.5420  -29.1240    3.1650 N.ar   201  PZA201      0.0000
      7 C3        -49.8780  -29.1190    4.4380 C.ar   201  PZA201      0.0000
      8 C4        -48.8970  -29.1490    5.4210 C.ar   201  PZA201      0.0000
      9 N3        -47.6250  -29.2100    5.0630 N.ar   201  PZA201      0.0000
     10 H         -47.2810  -29.1817    7.5703 H      201  PZA201      0.0000
     11 H         -48.5338  -29.1616    8.8740 H      201  PZA201      0.0000
     12 H         -46.2417  -29.2797    3.5183 H      201  PZA201      0.0000
     13 H         -48.0187  -29.1801    1.7599 H      201  PZA201      0.0000
     14 H         -50.9477  -29.0828    4.6984 H      201  PZA201      0.0000
@<TRIPOS>BOND
     1     1     2    1
     2     1     3    2
     3     1     8    1
     4     2    10    1
     5     2    11    1
     6     4     5   ar
     7     4     9   ar
     8     4    12    1
     9     5     6   ar
    10     5    13    1
    11     6     7   ar
    12     7     8   ar
    13     7    14    1
    14     8     9   ar

