@<TRIPOS>MOLECULE
DAZ_1_B_702
 7 6 0 0 0
SMALL
NO_CHARGES

@<TRIPOS>ATOM
      1 ZN         50.3640  -53.8110  -41.3220 Zn     702  DAZ702      2.0000
      2 N1         49.4100  -53.3740  -42.9800 N.pl3  702  DAZ702      0.0000
      3 N2         50.1900  -55.7420  -41.0700 N.pl3  702  DAZ702      0.0000
      4 H          49.5540  -52.3829  -43.1457 H      702  DAZ702      0.0000
      5 H          49.8801  -53.8744  -43.7277 H      702  DAZ702      0.0000
      6 H          50.5916  -55.9545  -40.1623 H      702  DAZ702      0.0000
      7 H          50.7798  -56.1819  -41.7694 H      702  DAZ702      0.0000
@<TRIPOS>BOND
     1     1     2    1
     2     1     3    1
     3     2     4    1
     4     2     5    1
     5     3     6    1
     6     3     7    1

