DMS_1_B_603
  -ISIS-            3D

 10  9  0  0  0  0  0  0  0  0  1 V2000
   47.6300  -55.9280  -36.2940 S   0  0  0  0  0
   47.9470  -55.2450  -35.0430 O   0  0  0  0  0
   48.2460  -55.3370  -37.8120 C   0  0  0  0  0
   46.6090  -57.3680  -36.2770 C   0  0  0  0  0
   47.8972  -55.9871  -38.6398 H   0  0  0  0  0
   49.3548  -55.3385  -37.7900 H   0  0  0  0  0
   47.8840  -54.3029  -37.9837 H   0  0  0  0  0
   46.4782  -57.7479  -37.3105 H   0  0  0  0  0
   45.6167  -57.1138  -35.8519 H   0  0  0  0  0
   47.0860  -58.1532  -35.6558 H   0  0  0  0  0
  1  2  2  0  0  0
  1  3  1  0  0  0
  1  4  1  0  0  0
  3  5  1  0  0  0
  3  6  1  0  0  0
  3  7  1  0  0  0
  4  8  1  0  0  0
  4  9  1  0  0  0
  4 10  1  0  0  0
M  END
$$$$
