DMS_1_A_604
  -ISIS-            3D

 10  9  0  0  0  0  0  0  0  0  1 V2000
   35.8270  -32.4260   -7.4000 S   0  0  0  0  0
   35.5470  -33.6450   -8.1500 O   0  0  0  0  0
   34.6800  -31.1080   -7.4130 C   0  0  0  0  0
   37.3080  -32.3000   -6.4710 C   0  0  0  0  0
   35.1682  -30.1943   -7.8082 H   0  0  0  0  0
   34.3231  -30.9159   -6.3807 H   0  0  0  0  0
   33.8153  -31.3684   -8.0566 H   0  0  0  0  0
   37.8987  -31.4327   -6.8297 H   0  0  0  0  0
   37.9067  -33.2258   -6.5911 H   0  0  0  0  0
   37.0626  -32.1589   -5.3989 H   0  0  0  0  0
  1  2  2  0  0  0
  1  3  1  0  0  0
  1  4  1  0  0  0
  3  5  1  0  0  0
  3  6  1  0  0  0
  3  7  1  0  0  0
  4  8  1  0  0  0
  4  9  1  0  0  0
  4 10  1  0  0  0
M  END
$$$$
