3TR_1_A_401
  -ISIS-            3D

 10 10  0  0  0  0  0  0  0  0  1 V2000
   -0.9450   14.9070    1.2210 N   0  0  0  0  0
   -2.1190   14.9520    0.4740 N   0  0  0  0  0
   -1.7790   14.7910   -0.8060 C   0  0  0  0  0
   -0.4310   14.6490   -0.9240 N   0  0  0  0  0
    0.0760   14.7220    0.3230 C   0  0  0  0  0
   -2.6080   14.7300   -1.8500 N   0  0  0  0  0
   -0.8861   14.9994    2.2410 H   0  0  0  0  0
    1.1429   14.6429    0.5761 H   0  0  0  0  0
   -2.1598   14.5882   -2.7635 H   0  0  0  0  0
   -3.6111   14.8293   -1.6490 H   0  0  0  0  0
  1  2  1  0  0  0
  1  5  1  0  0  0
  1  7  1  0  0  0
  2  3  2  0  0  0
  3  4  1  0  0  0
  3  6  1  0  0  0
  4  5  2  0  0  0
  5  8  1  0  0  0
  6  9  1  0  0  0
  6 10  1  0  0  0
M  END
$$$$
