@<TRIPOS>MOLECULE
3TR_1_A_401
 10 10 0 0 0
SMALL
NO_CHARGES

@<TRIPOS>ATOM
      1 N1         -0.9450   14.9070    1.2210 N.ar   401  3TR401      0.0000
      2 N2         -2.1190   14.9520    0.4740 N.ar   401  3TR401      0.0000
      3 C3         -1.7790   14.7910   -0.8060 C.ar   401  3TR401      0.0000
      4 N4         -0.4310   14.6490   -0.9240 N.ar   401  3TR401      0.0000
      5 C5          0.0760   14.7220    0.3230 C.ar   401  3TR401      0.0000
      6 N3A        -2.6080   14.7300   -1.8500 N.pl3  401  3TR401      0.0000
      7 H          -0.8861   14.9994    2.2410 H      401  3TR401      0.0000
      8 H           1.1429   14.6429    0.5761 H      401  3TR401      0.0000
      9 H          -2.1598   14.5882   -2.7635 H      401  3TR401      0.0000
     10 H          -3.6111   14.8293   -1.6490 H      401  3TR401      0.0000
@<TRIPOS>BOND
     1     1     2   ar
     2     1     5   ar
     3     1     7    1
     4     2     3   ar
     5     3     4   ar
     6     3     6    1
     7     4     5   ar
     8     5     8    1
     9     6     9    1
    10     6    10    1

