DMS_2_A_401
  -ISIS-            3D

 10  9  0  0  0  0  0  0  0  0  1 V2000
   -6.9070  -28.0170  -21.6060 S   0  0  0  0  0
   -7.5980  -27.0140  -22.3980 O   0  0  0  0  0
   -5.5720  -28.5650  -22.6620 C   0  0  0  0  0
   -5.9750  -27.1180  -20.4270 C   0  0  0  0  0
   -4.8879  -29.2234  -22.0886 H   0  0  0  0  0
   -5.0056  -27.6943  -23.0517 H   0  0  0  0  0
   -5.9901  -29.1375  -23.5151 H   0  0  0  0  0
   -5.2870  -27.8022  -19.8897 H   0  0  0  0  0
   -6.6612  -26.6524  -19.6903 H   0  0  0  0  0
   -5.3845  -26.3204  -20.9231 H   0  0  0  0  0
  1  2  2  0  0  0
  1  3  1  0  0  0
  1  4  1  0  0  0
  3  5  1  0  0  0
  3  6  1  0  0  0
  3  7  1  0  0  0
  4  8  1  0  0  0
  4  9  1  0  0  0
  4 10  1  0  0  0
M  END
$$$$
