@<TRIPOS>MOLECULE
DMS_1_A_401
 10 9 0 0 0
SMALL
NO_CHARGES

@<TRIPOS>ATOM
      1 S           6.9070  -28.0170   21.6060 S.o    401  DMS401      0.0000
      2 O           7.5980  -27.0140   22.3980 O.2    401  DMS401      0.0000
      3 C1          5.5720  -28.5650   22.6620 C.3    401  DMS401      0.0000
      4 C2          5.9750  -27.1180   20.4270 C.3    401  DMS401      0.0000
      5 H           4.8879  -29.2234   22.0886 H      401  DMS401      0.0000
      6 H           5.0056  -27.6943   23.0517 H      401  DMS401      0.0000
      7 H           5.9901  -29.1375   23.5151 H      401  DMS401      0.0000
      8 H           5.2870  -27.8022   19.8897 H      401  DMS401      0.0000
      9 H           6.6612  -26.6524   19.6903 H      401  DMS401      0.0000
     10 H           5.3845  -26.3204   20.9231 H      401  DMS401      0.0000
@<TRIPOS>BOND
     1     1     2    2
     2     1     3    1
     3     1     4    1
     4     3     5    1
     5     3     6    1
     6     3     7    1
     7     4     8    1
     8     4     9    1
     9     4    10    1

