@<TRIPOS>MOLECULE
DMS_2_A_404
 10 9 0 0 0
SMALL
NO_CHARGES

@<TRIPOS>ATOM
      1 S         -21.1470   14.6250   -8.0290 S.o    404  DMS404      0.0000
      2 O         -22.6210   14.5540   -7.8920 O.2    404  DMS404      0.0000
      3 C1        -20.7110   13.1550   -8.8860 C.3    404  DMS404      0.0000
      4 C2        -20.5440   14.0670   -6.4780 C.3    404  DMS404      0.0000
      5 H         -19.6103   13.0176   -8.8729 H      404  DMS404      0.0000
      6 H         -21.0415   13.2365   -9.9418 H      404  DMS404      0.0000
      7 H         -21.1991   12.2694   -8.4295 H      404  DMS404      0.0000
      8 H         -19.4483   13.9020   -6.5312 H      404  DMS404      0.0000
      9 H         -21.0445   13.1252   -6.1724 H      404  DMS404      0.0000
     10 H         -20.7447   14.8405   -5.7085 H      404  DMS404      0.0000
@<TRIPOS>BOND
     1     1     2    2
     2     1     3    1
     3     1     4    1
     4     3     5    1
     5     3     6    1
     6     3     7    1
     7     4     8    1
     8     4     9    1
     9     4    10    1

