@<TRIPOS>MOLECULE
DMS_1_A_403
 10 9 0 0 0
SMALL
NO_CHARGES

@<TRIPOS>ATOM
      1 S           2.4270  -18.8160    8.0830 S.o    403  DMS403      0.0000
      2 O           3.6750  -18.7760    8.8970 O.2    403  DMS403      0.0000
      3 C1          1.2420  -17.8890    8.9960 C.3    403  DMS403      0.0000
      4 C2          1.7590  -20.4020    8.5120 C.3    403  DMS403      0.0000
      5 H           0.2282  -18.0492    8.5753 H      403  DMS403      0.0000
      6 H           1.4878  -16.8098    8.9229 H      403  DMS403      0.0000
      7 H           1.2489  -18.1839   10.0654 H      403  DMS403      0.0000
      8 H           0.7295  -20.5001    8.1108 H      403  DMS403      0.0000
      9 H           1.7405  -20.5380    9.6130 H      403  DMS403      0.0000
     10 H           2.3895  -21.1973    8.0640 H      403  DMS403      0.0000
@<TRIPOS>BOND
     1     1     2    2
     2     1     3    1
     3     1     4    1
     4     3     5    1
     5     3     6    1
     6     3     7    1
     7     4     8    1
     8     4     9    1
     9     4    10    1

