DMS_2_A_401
  -ISIS-            3D

 10  9  0  0  0  0  0  0  0  0  1 V2000
   -7.1290  -28.0930  -21.4720 S   0  0  0  0  0
   -7.8200  -26.9980  -22.1360 O   0  0  0  0  0
   -5.8040  -28.4960  -22.5650 C   0  0  0  0  0
   -6.1560  -27.3480  -20.1880 C   0  0  0  0  0
   -5.1196  -29.2197  -22.0770 H   0  0  0  0  0
   -5.2366  -27.5840  -22.8438 H   0  0  0  0  0
   -6.2141  -28.9598  -23.4855 H   0  0  0  0  0
   -5.4709  -28.1020  -19.7494 H   0  0  0  0  0
   -6.8284  -26.9700  -19.3908 H   0  0  0  0  0
   -5.5634  -26.5010  -20.5912 H   0  0  0  0  0
  1  2  2  0  0  0
  1  3  1  0  0  0
  1  4  1  0  0  0
  3  5  1  0  0  0
  3  6  1  0  0  0
  3  7  1  0  0  0
  4  8  1  0  0  0
  4  9  1  0  0  0
  4 10  1  0  0  0
M  END
$$$$
