DMS_2_A_404
  -ISIS-            3D

 10  9  0  0  0  0  0  0  0  0  1 V2000
  -21.1470   14.6250   -8.0290 S   0  0  0  0  0
  -22.6210   14.5540   -7.8920 O   0  0  0  0  0
  -20.7110   13.1550   -8.8860 C   0  0  0  0  0
  -20.5440   14.0670   -6.4780 C   0  0  0  0  0
  -19.6103   13.0176   -8.8729 H   0  0  0  0  0
  -21.0415   13.2365   -9.9418 H   0  0  0  0  0
  -21.1991   12.2694   -8.4295 H   0  0  0  0  0
  -19.4483   13.9020   -6.5312 H   0  0  0  0  0
  -21.0445   13.1252   -6.1724 H   0  0  0  0  0
  -20.7447   14.8405   -5.7085 H   0  0  0  0  0
  1  2  2  0  0  0
  1  3  1  0  0  0
  1  4  1  0  0  0
  3  5  1  0  0  0
  3  6  1  0  0  0
  3  7  1  0  0  0
  4  8  1  0  0  0
  4  9  1  0  0  0
  4 10  1  0  0  0
M  END
$$$$
