@<TRIPOS>MOLECULE
DMS_1_A_401
 10 9 0 0 0
SMALL
NO_CHARGES

@<TRIPOS>ATOM
      1 S           7.1290  -28.0930   21.4720 S.o    401  DMS401      0.0000
      2 O           7.8200  -26.9980   22.1360 O.2    401  DMS401      0.0000
      3 C1          5.8040  -28.4960   22.5650 C.3    401  DMS401      0.0000
      4 C2          6.1560  -27.3480   20.1880 C.3    401  DMS401      0.0000
      5 H           5.1196  -29.2197   22.0770 H      401  DMS401      0.0000
      6 H           5.2366  -27.5840   22.8438 H      401  DMS401      0.0000
      7 H           6.2141  -28.9598   23.4855 H      401  DMS401      0.0000
      8 H           5.4709  -28.1020   19.7494 H      401  DMS401      0.0000
      9 H           6.8284  -26.9700   19.3908 H      401  DMS401      0.0000
     10 H           5.5634  -26.5010   20.5912 H      401  DMS401      0.0000
@<TRIPOS>BOND
     1     1     2    2
     2     1     3    1
     3     1     4    1
     4     3     5    1
     5     3     6    1
     6     3     7    1
     7     4     8    1
     8     4     9    1
     9     4    10    1

