BO3_1_A_404
  -ISIS-            3D

  7  6  0  0  0  0  0  0  0  0  1 V2000
    9.0820  -18.0100   28.2450 B   0  0  0  0  0
    8.2100  -17.0770   29.0830 O   0  0  0  0  0
    9.3250  -19.4380   28.7300 O   0  0  0  0  0
    9.9670  -17.4280   27.1460 O   0  0  0  0  0
    7.7788  -17.5270   29.7960 H   0  0  0  0  0
    8.7870  -19.6566   29.4775 H   0  0  0  0  0
   10.5259  -18.1071   26.7932 H   0  0  0  0  0
  1  2  1  0  0  0
  1  3  1  0  0  0
  1  4  1  0  0  0
  2  5  1  0  0  0
  3  6  1  0  0  0
  4  7  1  0  0  0
M  END
$$$$
