@<TRIPOS>MOLECULE
DMS_1_A_403
 10 9 0 0 0
SMALL
NO_CHARGES

@<TRIPOS>ATOM
      1 S           2.2960  -19.0420    8.0040 S.o    403  DMS403      0.0000
      2 O           3.5290  -18.6980    8.8180 O.2    403  DMS403      0.0000
      3 C1          0.9600  -18.1030    8.7110 C.3    403  DMS403      0.0000
      4 C2          1.7830  -20.6530    8.5660 C.3    403  DMS403      0.0000
      5 H          -0.0026  -18.4204    8.2600 H      403  DMS403      0.0000
      6 H           1.1173  -17.0257    8.4985 H      403  DMS403      0.0000
      7 H           0.9214  -18.2528    9.8092 H      403  DMS403      0.0000
      8 H           0.8006  -20.9113    8.1201 H      403  DMS403      0.0000
      9 H           1.7031  -20.6688    9.6721 H      403  DMS403      0.0000
     10 H           2.5310  -21.4073    8.2466 H      403  DMS403      0.0000
@<TRIPOS>BOND
     1     1     2    2
     2     1     3    1
     3     1     4    1
     4     3     5    1
     5     3     6    1
     6     3     7    1
     7     4     8    1
     8     4     9    1
     9     4    10    1

