@<TRIPOS>MOLECULE
DMS_2_A_401
 10 9 0 0 0
SMALL
NO_CHARGES

@<TRIPOS>ATOM
      1 S          -7.1030  -28.2410  -21.4200 S.o    401  DMS401      0.0000
      2 O          -7.7440  -27.2220  -22.2660 O.2    401  DMS401      0.0000
      3 C1         -5.7830  -28.9380  -22.3750 C.3    401  DMS401      0.0000
      4 C2         -6.1510  -27.3820  -20.2120 C.3    401  DMS401      0.0000
      5 H          -5.1861  -29.6278  -21.7440 H      401  DMS401      0.0000
      6 H          -5.1256  -28.1353  -22.7677 H      401  DMS401      0.0000
      7 H          -6.2065  -29.5078  -23.2272 H      401  DMS401      0.0000
      8 H          -5.5471  -28.1040  -19.6252 H      401  DMS401      0.0000
      9 H          -6.8313  -26.8415  -19.5226 H      401  DMS401      0.0000
     10 H          -5.4762  -26.6496  -20.7008 H      401  DMS401      0.0000
@<TRIPOS>BOND
     1     1     2    2
     2     1     3    1
     3     1     4    1
     4     3     5    1
     5     3     6    1
     6     3     7    1
     7     4     8    1
     8     4     9    1
     9     4    10    1

