DMS_2_A_401
  -ISIS-            3D

 10  9  0  0  0  0  0  0  0  0  1 V2000
   -6.8900  -28.0160  -21.3530 S   0  0  0  0  0
   -7.6550  -27.1450  -22.3010 O   0  0  0  0  0
   -5.6830  -28.8610  -22.3470 C   0  0  0  0  0
   -5.7780  -26.9600  -20.4800 C   0  0  0  0  0
   -4.9844  -29.4231  -21.6940 H   0  0  0  0  0
   -5.1118  -28.1360  -22.9626 H   0  0  0  0  0
   -6.1986  -29.5771  -23.0188 H   0  0  0  0  0
   -5.0802  -27.5688  -19.8693 H   0  0  0  0  0
   -6.3561  -26.2962  -19.8052 H   0  0  0  0  0
   -5.1983  -26.3346  -21.1896 H   0  0  0  0  0
  1  2  2  0  0  0
  1  3  1  0  0  0
  1  4  1  0  0  0
  3  5  1  0  0  0
  3  6  1  0  0  0
  3  7  1  0  0  0
  4  8  1  0  0  0
  4  9  1  0  0  0
  4 10  1  0  0  0
M  END
$$$$
