@<TRIPOS>MOLECULE
DMS_2_A_403
 10 9 0 0 0
SMALL
NO_CHARGES

@<TRIPOS>ATOM
      1 S          -2.3670  -18.9330   -8.1550 S.o    403  DMS403      0.0000
      2 O          -3.5830  -18.7580   -9.0370 O.2    403  DMS403      0.0000
      3 C1         -1.0460  -18.0780   -8.9830 C.3    403  DMS403      0.0000
      4 C2         -1.8010  -20.5870   -8.4650 C.3    403  DMS403      0.0000
      5 H          -0.0822  -18.2964   -8.4792 H      403  DMS403      0.0000
      6 H          -1.2331  -16.9856   -8.9387 H      403  DMS403      0.0000
      7 H          -0.9875  -18.3912  -10.0453 H      403  DMS403      0.0000
      8 H          -0.8186  -20.7467   -7.9756 H      403  DMS403      0.0000
      9 H          -1.7042  -20.7660   -9.5553 H      403  DMS403      0.0000
     10 H          -2.5305  -21.3080   -8.0448 H      403  DMS403      0.0000
@<TRIPOS>BOND
     1     1     2    2
     2     1     3    1
     3     1     4    1
     4     3     5    1
     5     3     6    1
     6     3     7    1
     7     4     8    1
     8     4     9    1
     9     4    10    1

