DMS_1_A_407
  -ISIS-            3D

 10  9  0  0  0  0  0  0  0  0  1 V2000
  -24.8600  -10.3100   37.3840 S   0  0  0  0  0
  -24.4970   -9.1660   38.2420 O   0  0  0  0  0
  -26.5940  -10.5210   37.6110 C   0  0  0  0  0
  -24.3930  -11.7580   38.2930 C   0  0  0  0  0
  -26.9281  -11.4635   37.1309 H   0  0  0  0  0
  -27.1307   -9.6738   37.1367 H   0  0  0  0  0
  -26.8495  -10.5456   38.6902 H   0  0  0  0  0
  -24.7873  -12.6648   37.7903 H   0  0  0  0  0
  -24.7812  -11.7116   39.3311 H   0  0  0  0  0
  -23.2862  -11.8254   38.3279 H   0  0  0  0  0
  1  2  2  0  0  0
  1  3  1  0  0  0
  1  4  1  0  0  0
  3  5  1  0  0  0
  3  6  1  0  0  0
  3  7  1  0  0  0
  4  8  1  0  0  0
  4  9  1  0  0  0
  4 10  1  0  0  0
M  END
$$$$
