@<TRIPOS>MOLECULE
DMS_1_A_401
 10 9 0 0 0
SMALL
NO_CHARGES

@<TRIPOS>ATOM
      1 S         -21.3390  -11.1300    8.5390 S.o    401  DMS401      0.0000
      2 O         -20.3510  -10.0330    8.4790 O.2    401  DMS401      0.0000
      3 C1        -22.6410  -10.6460    7.4370 C.3    401  DMS401      0.0000
      4 C2        -22.1810  -10.9080   10.0720 C.3    401  DMS401      0.0000
      5 H         -23.4983  -11.3422    7.5401 H      401  DMS401      0.0000
      6 H         -22.2715  -10.6855    6.3919 H      401  DMS401      0.0000
      7 H         -22.9760   -9.6129    7.6635 H      401  DMS401      0.0000
      8 H         -23.0470  -11.5987   10.1289 H      401  DMS401      0.0000
      9 H         -22.5378   -9.8623   10.1712 H      401  DMS401      0.0000
     10 H         -21.4886  -11.1339   10.9086 H      401  DMS401      0.0000
@<TRIPOS>BOND
     1     1     2    2
     2     1     3    1
     3     1     4    1
     4     3     5    1
     5     3     6    1
     6     3     7    1
     7     4     8    1
     8     4     9    1
     9     4    10    1

