@<TRIPOS>MOLECULE
YRL_1_A_404
 20 20 0 0 0
SMALL
NO_CHARGES

@<TRIPOS>ATOM
      1 C01        42.8340    9.6780   33.3530 C.ar   404  YRL404      0.0000
      2 C02        42.9610   10.8160   32.5770 C.ar   404  YRL404      0.0000
      3 C03        43.4930    9.5940   34.5820 C.ar   404  YRL404      0.0000
      4 C04        43.7370   11.8830   32.9660 C.ar   404  YRL404      0.0000
      5 C05        44.2870   10.6640   34.9760 C.ar   404  YRL404      0.0000
      6 C06        44.3880   11.8020   34.1960 C.ar   404  YRL404      0.0000
      7 O07        45.1830   12.8720   34.6100 O.3    404  YRL404      0.0000
      8 C08        41.9320    8.5490   32.8400 C.3    404  YRL404      0.0000
      9 C09        42.0390    7.2770   33.6870 C.3    404  YRL404      0.0000
     10 O10        40.9880    7.2670   34.6190 O.3    404  YRL404      0.0000
     11 H          42.4268   10.8739   31.6126 H      404  YRL404      0.0000
     12 H          43.4097    8.7278   35.2547 H      404  YRL404      0.0000
     13 H          43.8264   12.7714   32.3184 H      404  YRL404      0.0000
     14 H          44.8341   10.6149   35.9328 H      404  YRL404      0.0000
     15 H          45.1755   13.5921   33.9957 H      404  YRL404      0.0000
     16 H          42.2431    8.3109   31.7971 H      404  YRL404      0.0000
     17 H          40.8774    8.8992   32.7842 H      404  YRL404      0.0000
     18 H          43.0261    7.1193   34.1620 H      404  YRL404      0.0000
     19 H          41.8979    6.4010   33.0148 H      404  YRL404      0.0000
     20 H          41.0515    6.4773   35.1399 H      404  YRL404      0.0000
@<TRIPOS>BOND
     1     1     2   ar
     2     1     3   ar
     3     1     8    1
     4     2     4   ar
     5     2    11    1
     6     3     5   ar
     7     3    12    1
     8     4     6   ar
     9     4    13    1
    10     5     6   ar
    11     5    14    1
    12     6     7    1
    13     7    15    1
    14     8     9    1
    15     8    16    1
    16     8    17    1
    17     9    10    1
    18     9    18    1
    19     9    19    1
    20    10    20    1

