YRL_1_A_404
  -ISIS-            3D

 20 20  0  0  0  0  0  0  0  0  1 V2000
   42.8340    9.6780   33.3530 C   0  0  0  0  0
   42.9610   10.8160   32.5770 C   0  0  0  0  0
   43.4930    9.5940   34.5820 C   0  0  0  0  0
   43.7370   11.8830   32.9660 C   0  0  0  0  0
   44.2870   10.6640   34.9760 C   0  0  0  0  0
   44.3880   11.8020   34.1960 C   0  0  0  0  0
   45.1830   12.8720   34.6100 O   0  0  0  0  0
   41.9320    8.5490   32.8400 C   0  0  0  0  0
   42.0390    7.2770   33.6870 C   0  0  0  0  0
   40.9880    7.2670   34.6190 O   0  0  0  0  0
   42.4268   10.8739   31.6126 H   0  0  0  0  0
   43.4097    8.7278   35.2547 H   0  0  0  0  0
   43.8264   12.7714   32.3184 H   0  0  0  0  0
   44.8341   10.6149   35.9328 H   0  0  0  0  0
   45.1755   13.5921   33.9957 H   0  0  0  0  0
   42.2431    8.3109   31.7971 H   0  0  0  0  0
   40.8774    8.8992   32.7842 H   0  0  0  0  0
   43.0261    7.1193   34.1620 H   0  0  0  0  0
   41.8979    6.4010   33.0148 H   0  0  0  0  0
   41.0515    6.4773   35.1399 H   0  0  0  0  0
  1  2  2  0  0  0
  1  3  1  0  0  0
  1  8  1  0  0  0
  2  4  1  0  0  0
  2 11  1  0  0  0
  3  5  2  0  0  0
  3 12  1  0  0  0
  4  6  2  0  0  0
  4 13  1  0  0  0
  5  6  1  0  0  0
  5 14  1  0  0  0
  6  7  1  0  0  0
  7 15  1  0  0  0
  8  9  1  0  0  0
  8 16  1  0  0  0
  8 17  1  0  0  0
  9 10  1  0  0  0
  9 18  1  0  0  0
  9 19  1  0  0  0
 10 20  1  0  0  0
M  END
$$$$
