DMS_2_A_404
  -ISIS-            3D

 10  9  0  0  0  0  0  0  0  0  1 V2000
  -16.9490   25.0510   22.2210 S   0  0  0  0  0
  -17.7840   25.9550   21.3960 O   0  0  0  0  0
  -15.6740   24.3410   21.1570 C   0  0  0  0  0
  -15.9010   25.9780   23.3600 C   0  0  0  0  0
  -15.0019   23.6968   21.7600 H   0  0  0  0  0
  -15.0842   25.1511   20.6811 H   0  0  0  0  0
  -16.1551   23.7267   20.3686 H   0  0  0  0  0
  -15.2319   25.2797   23.9031 H   0  0  0  0  0
  -16.5402   26.5128   24.0919 H   0  0  0  0  0
  -15.2923   26.7157   22.7981 H   0  0  0  0  0
  1  2  2  0  0  0
  1  3  1  0  0  0
  1  4  1  0  0  0
  3  5  1  0  0  0
  3  6  1  0  0  0
  3  7  1  0  0  0
  4  8  1  0  0  0
  4  9  1  0  0  0
  4 10  1  0  0  0
M  END
$$$$
