DMS_2_A_405
  -ISIS-            3D

 10  9  0  0  0  0  0  0  0  0  1 V2000
   -6.1920   -0.8930    6.2920 S   0  0  0  0  0
   -7.2930   -0.7320    7.2820 O   0  0  0  0  0
   -5.4730   -2.5590    6.4100 C   0  0  0  0  0
   -6.8590   -0.9590    4.5950 C   0  0  0  0  0
   -4.6866   -2.6791    5.6371 H   0  0  0  0  0
   -6.2646   -3.3214    6.2591 H   0  0  0  0  0
   -5.0217   -2.6910    7.4146 H   0  0  0  0  0
   -6.0300   -1.1268    3.8775 H   0  0  0  0  0
   -7.3561    0.0047    4.3615 H   0  0  0  0  0
   -7.5969   -1.7834    4.5138 H   0  0  0  0  0
  1  2  2  0  0  0
  1  3  1  0  0  0
  1  4  1  0  0  0
  3  5  1  0  0  0
  3  6  1  0  0  0
  3  7  1  0  0  0
  4  8  1  0  0  0
  4  9  1  0  0  0
  4 10  1  0  0  0
M  END
$$$$
