@<TRIPOS>MOLECULE
DMS_2_A_404
 10 9 0 0 0
SMALL
NO_CHARGES

@<TRIPOS>ATOM
      1 S         -16.9490   25.0510   22.2210 S.o    404  DMS404      0.0000
      2 O         -17.7840   25.9550   21.3960 O.2    404  DMS404      0.0000
      3 C1        -15.6740   24.3410   21.1570 C.3    404  DMS404      0.0000
      4 C2        -15.9010   25.9780   23.3600 C.3    404  DMS404      0.0000
      5 H         -15.0019   23.6968   21.7600 H      404  DMS404      0.0000
      6 H         -15.0842   25.1511   20.6811 H      404  DMS404      0.0000
      7 H         -16.1551   23.7267   20.3686 H      404  DMS404      0.0000
      8 H         -15.2319   25.2797   23.9031 H      404  DMS404      0.0000
      9 H         -16.5402   26.5128   24.0919 H      404  DMS404      0.0000
     10 H         -15.2923   26.7157   22.7981 H      404  DMS404      0.0000
@<TRIPOS>BOND
     1     1     2    2
     2     1     3    1
     3     1     4    1
     4     3     5    1
     5     3     6    1
     6     3     7    1
     7     4     8    1
     8     4     9    1
     9     4    10    1

