DMS_1_A_403
  -ISIS-            3D

 10  9  0  0  0  0  0  0  0  0  1 V2000
    2.2700  -18.7640    8.1970 S   0  0  0  0  0
    2.1190  -20.2430    8.3450 O   0  0  0  0  0
    1.0860  -17.9180    9.2820 C   0  0  0  0  0
    3.8140  -18.2740    9.0100 C   0  0  0  0  0
    1.2613  -16.8235    9.2413 H   0  0  0  0  0
    1.2072  -18.2766   10.3247 H   0  0  0  0  0
    0.0546  -18.1355    8.9368 H   0  0  0  0  0
    3.9138  -17.1696    8.9833 H   0  0  0  0  0
    4.6708  -18.7304    8.4733 H   0  0  0  0  0
    3.8133  -18.6224   10.0632 H   0  0  0  0  0
  1  2  2  0  0  0
  1  3  1  0  0  0
  1  4  1  0  0  0
  3  5  1  0  0  0
  3  6  1  0  0  0
  3  7  1  0  0  0
  4  8  1  0  0  0
  4  9  1  0  0  0
  4 10  1  0  0  0
M  END
$$$$
