@<TRIPOS>MOLECULE
DMS_1_A_401
 10 9 0 0 0
SMALL
NO_CHARGES

@<TRIPOS>ATOM
      1 S           6.9950  -28.0270   21.6710 S.o    401  DMS401      0.0000
      2 O           7.6850  -26.9810   22.4340 O.2    401  DMS401      0.0000
      3 C1          5.7240  -28.6400   22.7460 C.3    401  DMS401      0.0000
      4 C2          5.9540  -27.2030   20.5110 C.3    401  DMS401      0.0000
      5 H           5.0669  -29.3405   22.1911 H      401  DMS401      0.0000
      6 H           5.1163  -27.8019   23.1454 H      401  DMS401      0.0000
      7 H           6.1901  -29.1832   23.5934 H      401  DMS401      0.0000
      8 H           5.2951  -27.9386   20.0061 H      401  DMS401      0.0000
      9 H           6.5810  -26.7018   19.7454 H      401  DMS401      0.0000
     10 H           5.3310  -26.4399   21.0215 H      401  DMS401      0.0000
@<TRIPOS>BOND
     1     1     2    2
     2     1     3    1
     3     1     4    1
     4     3     5    1
     5     3     6    1
     6     3     7    1
     7     4     8    1
     8     4     9    1
     9     4    10    1

