@<TRIPOS>MOLECULE
DMS_1_A_403
 10 9 0 0 0
SMALL
NO_CHARGES

@<TRIPOS>ATOM
      1 S           2.3980  -18.9750    8.0940 S.o    403  DMS403      0.0000
      2 O           3.5610  -18.7400    9.0380 O.2    403  DMS403      0.0000
      3 C1          0.9760  -18.2420    8.8610 C.3    403  DMS403      0.0000
      4 C2          1.9370  -20.6730    8.3420 C.3    403  DMS403      0.0000
      5 H           0.0604  -18.5175    8.2988 H      403  DMS403      0.0000
      6 H           1.0829  -17.1380    8.8511 H      403  DMS403      0.0000
      7 H           0.8823  -18.5854    9.9117 H      403  DMS403      0.0000
      8 H           0.9956  -20.8911    7.7975 H      403  DMS403      0.0000
      9 H           1.7963  -20.8826    9.4223 H      403  DMS403      0.0000
     10 H           2.7382  -21.3314    7.9483 H      403  DMS403      0.0000
@<TRIPOS>BOND
     1     1     2    2
     2     1     3    1
     3     1     4    1
     4     3     5    1
     5     3     6    1
     6     3     7    1
     7     4     8    1
     8     4     9    1
     9     4    10    1

