@<TRIPOS>MOLECULE
AMP_1_A_201
 36 38 0 0 0
SMALL
NO_CHARGES

@<TRIPOS>ATOM
      1 P          10.6380   24.8720   10.4830 P.3    201  AMP201      0.0000
      2 O1P        10.5980   25.7650    9.2660 O.co2  201  AMP201     -0.5000
      3 O2P        11.2130   25.4240   11.7170 O.co2  201  AMP201     -0.5000
      4 O3P        11.3750   23.6440   10.1180 O.co2  201  AMP201      0.0000
      5 O5'         9.1390   24.4790   10.8560 O.3    201  AMP201      0.0000
      6 C5'         8.2800   23.8610    9.9030 C.3    201  AMP201      0.0000
      7 C4'         6.9590   24.5790    9.8320 C.3    201  AMP201      0.0000
      8 O4'         6.3420   24.5500   11.1510 O.3    201  AMP201      0.0000
      9 C3'         7.0740   26.0520    9.4630 C.3    201  AMP201      0.0000
     10 O3'         5.8660   26.4790    8.8350 O.3    201  AMP201      0.0000
     11 C2'         7.2000   26.7180   10.8320 C.3    201  AMP201      0.0000
     12 O2'         6.8480   28.0820   10.8540 O.3    201  AMP201      0.0000
     13 C1'         6.2380   25.8720   11.6650 C.3    201  AMP201      0.0000
     14 N9          6.5580   25.8280   13.0960 N.ar   201  AMP201      0.0000
     15 C8          7.6210   26.3350   13.7310 C.ar   201  AMP201      0.0000
     16 N7          7.5100   26.0390   15.0370 N.ar   201  AMP201      0.0000
     17 C5          6.3830   25.3280   15.1920 C.ar   201  AMP201      0.0000
     18 C6          5.8050   24.7800   16.3030 C.ar   201  AMP201      0.0000
     19 N6          6.2630   24.8130   17.6660 N.3    201  AMP201      0.0000
     20 N1          4.6570   24.1180   16.1910 N.ar   201  AMP201      0.0000
     21 C2          4.0590   23.9810   14.9800 C.ar   201  AMP201      0.0000
     22 N3          4.6250   24.5200   13.8910 N.ar   201  AMP201      0.0000
     23 C4          5.7910   25.1950   14.0050 C.ar   201  AMP201      0.0000
     24 H           8.1238   22.8032   10.2016 H      201  AMP201      0.0000
     25 H           8.7406   23.8399    8.8935 H      201  AMP201      0.0000
     26 H           6.3024   24.0530    9.1068 H      201  AMP201      0.0000
     27 H           7.9392   26.2660    8.8046 H      201  AMP201      0.0000
     28 H           5.8059   27.4178    8.9680 H      201  AMP201      0.0000
     29 H           8.2429   26.6093   11.1862 H      201  AMP201      0.0000
     30 H           6.8454   28.3746   11.7559 H      201  AMP201      0.0000
     31 H           5.1946   26.2372   11.5545 H      201  AMP201      0.0000
     32 H           8.4930   26.9050   13.3897 H      201  AMP201      0.0000
     33 H           5.6606   24.3344   18.3470 H      201  AMP201      0.0000
     34 H           7.1469   25.3080   17.8409 H      201  AMP201      0.0000
     35 H           3.1096   23.4301   14.8938 H      201  AMP201      0.0000
     36 H          11.0175   23.2144    9.1360 H      201  AMP201      0.0000
@<TRIPOS>BOND
     1     1     2   ar
     2     1     3   ar
     3     1     4    1
     4     1     5    1
     5     5     6    1
     6     6     7    1
     7     6    24    1
     8     6    25    1
     9     7     8    1
    10     7     9    1
    11     7    26    1
    12     8    13    1
    13     9    10    1
    14     9    11    1
    15     9    27    1
    16    10    28    1
    17    11    12    1
    18    11    13    1
    19    11    29    1
    20    12    30    1
    21    13    14    1
    22    13    31    1
    23    14    15   ar
    24    14    23   ar
    25    15    16   ar
    26    15    32    1
    27    16    17   ar
    28    17    18   ar
    29    17    23   ar
    30    18    19    1
    31    18    20   ar
    32    19    33    1
    33    19    34    1
    34    20    21   ar
    35    21    22   ar
    36    21    35    1
    37    22    23   ar
    38     4    36    1

