@<TRIPOS>MOLECULE
EDO_3_A_404
 10 9 0 0 0
SMALL
NO_CHARGES

@<TRIPOS>ATOM
      1 C1        -90.8050   51.1170   -0.9770 C.3    404  EDO404      0.0000
      2 O1        -91.4420   51.9940   -0.0390 O.3    404  EDO404      0.0000
      3 C2        -90.5400   49.7610   -0.3280 C.3    404  EDO404      0.0000
      4 O2        -89.5090   49.0830   -1.0590 O.3    404  EDO404      0.0000
      5 H         -89.8465   51.5769   -1.2996 H      404  EDO404      0.0000
      6 H         -91.4394   50.9996   -1.8805 H      404  EDO404      0.0000
      7 H         -91.5706   52.8334   -0.4606 H      404  EDO404      0.0000
      8 H         -91.4644   49.1466   -0.3086 H      404  EDO404      0.0000
      9 H         -90.2042   49.8991    0.7218 H      404  EDO404      0.0000
     10 H         -89.3373   48.2564   -0.6277 H      404  EDO404      0.0000
@<TRIPOS>BOND
     1     1     2    1
     2     1     3    1
     3     1     5    1
     4     1     6    1
     5     2     7    1
     6     3     4    1
     7     3     8    1
     8     3     9    1
     9     4    10    1

