@<TRIPOS>MOLECULE
EDO_2_A_404
 10 9 0 0 0
SMALL
NO_CHARGES

@<TRIPOS>ATOM
      1 C1        -61.1610   53.0810   -0.9770 C.3    404  EDO404      0.0000
      2 O1        -60.0830   53.1940   -0.0390 O.3    404  EDO404      0.0000
      3 C2        -62.4680   53.5300   -0.3280 C.3    404  EDO404      0.0000
      4 O2        -63.5700   52.9760   -1.0590 O.3    404  EDO404      0.0000
      5 H         -61.2377   52.0293   -1.3270 H      404  EDO404      0.0000
      6 H         -60.9373   53.7032   -1.8679 H      404  EDO404      0.0000
      7 H         -59.8892   52.3332    0.3072 H      404  EDO404      0.0000
      8 H         -62.5444   54.6367   -0.3281 H      404  EDO404      0.0000
      9 H         -62.5181   53.1974    0.7307 H      404  EDO404      0.0000
     10 H         -63.8977   52.2199   -0.5892 H      404  EDO404      0.0000
@<TRIPOS>BOND
     1     1     2    1
     2     1     3    1
     3     1     5    1
     4     1     6    1
     5     2     7    1
     6     3     4    1
     7     3     8    1
     8     3     9    1
     9     4    10    1

