UVC_1_B_401
  -ISIS-            3D

 34 36  0  0  0  0  0  0  0  0  1 V2000
  -48.5800   32.7420   25.4000 N   0  0  0  0  0
  -49.7260   32.0740   25.5890 C   0  0  0  0  0
  -50.1890   31.2240   24.6620 N   0  0  0  0  0
  -49.5150   31.0180   23.5240 C   0  0  0  0  0
  -48.3240   31.6940   23.3050 C   0  0  0  0  0
  -47.8680   32.5690   24.2810 C   0  0  0  0  0
  -50.3770   32.2500   26.6400 O   0  0  0  0  0
  -49.9540   30.2220   22.6640 O   0  0  0  0  0
  -48.0880   33.6730   26.4390 C   0  0  0  0  0
  -47.3410   32.9360   27.5560 C   0  0  0  0  0
  -47.6440   33.5460   28.8020 O   0  0  0  0  0
  -45.8820   33.2040   27.1970 C   0  0  0  0  0
  -45.9440   34.5890   26.5780 C   0  0  0  0  0
  -45.0390   33.1630   28.3320 O   0  0  0  0  0
  -47.1850   34.5740   25.8360 O   0  0  0  0  0
  -44.8050   34.9560   25.6600 C   0  0  0  0  0
  -44.6370   33.9950   24.6280 O   0  0  0  0  0
  -46.0350   33.6820   29.9860 V   0  0  0  0  0
  -44.2820   33.7920   31.1460 O   0  0  0  0  0
  -46.8230   32.2010   31.2540 O   0  0  0  0  0
  -46.4400   35.7120   30.3630 O   0  0  0  0  0
  -47.7732   31.5193   22.3676 H   0  0  0  0  0
  -46.9279   33.1150   24.1369 H   0  0  0  0  0
  -48.9315   34.2531   26.8721 H   0  0  0  0  0
  -47.5641   31.8519   27.5981 H   0  0  0  0  0
  -45.5366   32.4610   26.4492 H   0  0  0  0  0
  -46.0237   35.3526   27.3819 H   0  0  0  0  0
  -43.8638   35.0309   26.2451 H   0  0  0  0  0
  -44.9870   35.9542   25.2082 H   0  0  0  0  0
  -43.8908   34.2507   24.1025 H   0  0  0  0  0
  -44.2982   32.9792   31.6340 H   0  0  0  0  0
  -47.7092   32.0883   30.9372 H   0  0  0  0  0
  -47.3289   35.7019   30.6929 H   0  0  0  0  0
  -51.0729   30.7255   24.8280 H   0  0  0  0  0
  1  2  1  0  0  0
  1  6  1  0  0  0
  1  9  1  0  0  0
  2  3  1  0  0  0
  2  7  2  0  0  0
  3  4  1  0  0  0
  4  5  1  0  0  0
  4  8  2  0  0  0
  5  6  2  0  0  0
  5 22  1  0  0  0
  6 23  1  0  0  0
  9 10  1  0  0  0
  9 15  1  0  0  0
  9 24  1  0  0  0
 10 11  1  0  0  0
 10 12  1  0  0  0
 10 25  1  0  0  0
 11 18  1  0  0  0
 12 13  1  0  0  0
 12 14  1  0  0  0
 12 26  1  0  0  0
 13 15  1  0  0  0
 13 16  1  0  0  0
 13 27  1  0  0  0
 14 18  1  0  0  0
 16 17  1  0  0  0
 16 28  1  0  0  0
 16 29  1  0  0  0
 17 30  1  0  0  0
 18 19  1  0  0  0
 18 20  1  0  0  0
 18 21  1  0  0  0
 19 31  1  0  0  0
 20 32  1  0  0  0
 21 33  1  0  0  0
  3 34  1  0  0  0
M  END
$$$$
