@<TRIPOS>MOLECULE
UVC_1_B_401
 34 36 0 0 0
SMALL
NO_CHARGES

@<TRIPOS>ATOM
      1 N1        -48.5800   32.7420   25.4000 N.ar   401  UVC401      0.0000
      2 C2        -49.7260   32.0740   25.5890 C.ar   401  UVC401      0.0000
      3 N3        -50.1890   31.2240   24.6620 N.ar   401  UVC401      0.0000
      4 C4        -49.5150   31.0180   23.5240 C.ar   401  UVC401      0.0000
      5 C5        -48.3240   31.6940   23.3050 C.ar   401  UVC401      0.0000
      6 C6        -47.8680   32.5690   24.2810 C.ar   401  UVC401      0.0000
      7 O2        -50.3770   32.2500   26.6400 O.2    401  UVC401      0.0000
      8 O4        -49.9540   30.2220   22.6640 O.2    401  UVC401      0.0000
      9 C1'       -48.0880   33.6730   26.4390 C.3    401  UVC401      0.0000
     10 C2'       -47.3410   32.9360   27.5560 C.3    401  UVC401      0.0000
     11 O2'       -47.6440   33.5460   28.8020 O.3    401  UVC401      0.0000
     12 C3'       -45.8820   33.2040   27.1970 C.3    401  UVC401      0.0000
     13 C4'       -45.9440   34.5890   26.5780 C.3    401  UVC401      0.0000
     14 O3'       -45.0390   33.1630   28.3320 O.3    401  UVC401      0.0000
     15 O4'       -47.1850   34.5740   25.8360 O.3    401  UVC401      0.0000
     16 C5'       -44.8050   34.9560   25.6600 C.3    401  UVC401      0.0000
     17 O5'       -44.6370   33.9950   24.6280 O.3    401  UVC401      0.0000
     18 V         -46.0350   33.6820   29.9860 V      401  UVC401      0.0000
     19 O1V       -44.2820   33.7920   31.1460 O.3    401  UVC401      0.0000
     20 O2V       -46.8230   32.2010   31.2540 O.3    401  UVC401      0.0000
     21 O3V       -46.4400   35.7120   30.3630 O.3    401  UVC401      0.0000
     22 H         -47.7732   31.5193   22.3676 H      401  UVC401      0.0000
     23 H         -46.9279   33.1150   24.1369 H      401  UVC401      0.0000
     24 H         -48.9315   34.2531   26.8721 H      401  UVC401      0.0000
     25 H         -47.5641   31.8519   27.5981 H      401  UVC401      0.0000
     26 H         -45.5366   32.4610   26.4492 H      401  UVC401      0.0000
     27 H         -46.0237   35.3526   27.3819 H      401  UVC401      0.0000
     28 H         -43.8638   35.0309   26.2451 H      401  UVC401      0.0000
     29 H         -44.9870   35.9542   25.2082 H      401  UVC401      0.0000
     30 H         -43.8908   34.2507   24.1025 H      401  UVC401      0.0000
     31 H         -44.2982   32.9792   31.6340 H      401  UVC401      0.0000
     32 H         -47.7092   32.0883   30.9372 H      401  UVC401      0.0000
     33 H         -47.3289   35.7019   30.6929 H      401  UVC401      0.0000
     34 H         -51.0729   30.7255   24.8280 H      401  UVC401      0.0000
@<TRIPOS>BOND
     1     1     2   ar
     2     1     6   ar
     3     1     9    1
     4     2     3   ar
     5     2     7    2
     6     3     4   ar
     7     4     5   ar
     8     4     8    2
     9     5     6   ar
    10     5    22    1
    11     6    23    1
    12     9    10    1
    13     9    15    1
    14     9    24    1
    15    10    11    1
    16    10    12    1
    17    10    25    1
    18    11    18    1
    19    12    13    1
    20    12    14    1
    21    12    26    1
    22    13    15    1
    23    13    16    1
    24    13    27    1
    25    14    18    1
    26    16    17    1
    27    16    28    1
    28    16    29    1
    29    17    30    1
    30    18    19    1
    31    18    20    1
    32    18    21    1
    33    19    31    1
    34    20    32    1
    35    21    33    1
    36     3    34    1

