UVC_3_B_401
  -ISIS-            3D

 34 36  0  0  0  0  0  0  0  0  1 V2000
  -98.1870   25.7010   25.4000 N   0  0  0  0  0
  -98.1930   27.0270   25.5890 C   0  0  0  0  0
  -98.6970   27.8530   24.6620 N   0  0  0  0  0
  -99.2120   27.3730   23.5240 C   0  0  0  0  0
  -99.2220   26.0030   23.3050 C   0  0  0  0  0
  -98.6930   25.1700   24.2810 C   0  0  0  0  0
  -97.7150   27.5030   26.6400 O   0  0  0  0  0
  -99.6820   28.1500   22.6640 O   0  0  0  0  0
  -97.6260   24.8090   26.4390 C   0  0  0  0  0
  -98.6380   24.5300   27.5560 C   0  0  0  0  0
  -97.9580   24.4880   28.8020 O   0  0  0  0  0
  -99.1360   23.1320   27.1970 C   0  0  0  0  0
  -97.9050   22.4950   26.5780 C   0  0  0  0  0
  -99.5920   22.4230   28.3320 O   0  0  0  0  0
  -97.2980   23.5760   25.8360 O   0  0  0  0  0
  -98.1560   21.3240   25.6600 C   0  0  0  0  0
  -99.0730   21.6590   24.6280 O   0  0  0  0  0
  -98.6450   23.0270   29.9860 V   0  0  0  0  0
  -99.4270   21.4530   31.1460 O   0  0  0  0  0
  -99.5340   24.4500   31.2540 O   0  0  0  0  0
  -96.6840   22.3620   30.3630 O   0  0  0  0  0
  -99.6482   25.6136   22.3672 H   0  0  0  0  0
  -98.6898   24.0829   24.1367 H   0  0  0  0  0
  -96.7016   25.2493   26.8718 H   0  0  0  0  0
  -99.4654   25.2653   27.5981 H   0  0  0  0  0
  -99.9522   23.2039   26.4492 H   0  0  0  0  0
  -97.2036   22.1826   27.3820 H   0  0  0  0  0
  -98.5623   20.4721   26.2458 H   0  0  0  0  0
  -97.2006   20.9819   25.2085 H   0  0  0  0  0
  -99.2244   20.8855   24.1014 H   0  0  0  0  0
  -98.7103   20.8327   31.1743 H   0  0  0  0  0
  -99.4082   25.2683   30.7915 H   0  0  0  0  0
  -96.2233   23.1611   30.5808 H   0  0  0  0  0
  -98.6867   28.8678   24.8284 H   0  0  0  0  0
  1  2  1  0  0  0
  1  6  1  0  0  0
  1  9  1  0  0  0
  2  3  1  0  0  0
  2  7  2  0  0  0
  3  4  1  0  0  0
  4  5  1  0  0  0
  4  8  2  0  0  0
  5  6  2  0  0  0
  5 22  1  0  0  0
  6 23  1  0  0  0
  9 10  1  0  0  0
  9 15  1  0  0  0
  9 24  1  0  0  0
 10 11  1  0  0  0
 10 12  1  0  0  0
 10 25  1  0  0  0
 11 18  1  0  0  0
 12 13  1  0  0  0
 12 14  1  0  0  0
 12 26  1  0  0  0
 13 15  1  0  0  0
 13 16  1  0  0  0
 13 27  1  0  0  0
 14 18  1  0  0  0
 16 17  1  0  0  0
 16 28  1  0  0  0
 16 29  1  0  0  0
 17 30  1  0  0  0
 18 19  1  0  0  0
 18 20  1  0  0  0
 18 21  1  0  0  0
 19 31  1  0  0  0
 20 32  1  0  0  0
 21 33  1  0  0  0
  3 34  1  0  0  0
M  END
$$$$
