@<TRIPOS>MOLECULE
UVC_2_B_401
 34 36 0 0 0
SMALL
NO_CHARGES

@<TRIPOS>ATOM
      1 N1        -79.4810   72.1820   25.4000 N.ar   401  UVC401      0.0000
      2 C2        -78.3300   71.5240   25.5890 C.ar   401  UVC401      0.0000
      3 N3        -77.3630   71.5480   24.6620 N.ar   401  UVC401      0.0000
      4 C4        -77.5200   72.2340   23.5240 C.ar   401  UVC401      0.0000
      5 C5        -78.7020   72.9280   23.3050 C.ar   401  UVC401      0.0000
      6 C6        -79.6880   72.8850   24.2810 C.ar   401  UVC401      0.0000
      7 O2        -78.1570   70.8720   26.6400 O.2    401  UVC401      0.0000
      8 O4        -76.6120   72.2520   22.6640 O.2    401  UVC401      0.0000
      9 C1'       -80.5340   72.1420   26.4390 C.3    401  UVC401      0.0000
     10 C2'       -80.2690   73.1580   27.5560 C.3    401  UVC401      0.0000
     11 O2'       -80.6460   72.5900   28.8020 O.3    401  UVC401      0.0000
     12 C3'       -81.2310   74.2880   27.1970 C.3    401  UVC401      0.0000
     13 C4'       -82.3990   73.5410   26.5780 C.3    401  UVC401      0.0000
     14 O3'       -81.6170   75.0380   28.3320 O.3    401  UVC401      0.0000
     15 O4'       -81.7650   72.4740   25.8360 O.3    401  UVC401      0.0000
     16 C5'       -83.2860   74.3440   25.6600 C.3    401  UVC401      0.0000
     17 O5'       -82.5380   74.9700   24.6280 O.3    401  UVC401      0.0000
     18 V         -81.5680   73.9150   29.9860 V      401  UVC401      0.0000
     19 O1V       -82.5400   75.3790   31.1460 O.3    401  UVC401      0.0000
     20 O2V       -79.8910   73.9740   31.2540 O.3    401  UVC401      0.0000
     21 O3V       -83.1240   72.5500   30.3630 O.3    401  UVC401      0.0000
     22 H         -78.8260   73.4918   22.3672 H      401  UVC401      0.0000
     23 H         -80.6316   73.4249   24.1368 H      401  UVC401      0.0000
     24 H         -80.6148   71.1216   26.8724 H      401  UVC401      0.0000
     25 H         -79.2185   73.5068   27.5982 H      401  UVC401      0.0000
     26 H         -80.7609   74.9591   26.4492 H      401  UVC401      0.0000
     27 H         -83.0202   73.0900   27.3820 H      401  UVC401      0.0000
     28 H         -83.8203   75.1221   26.2458 H      401  UVC401      0.0000
     29 H         -84.0602   73.6878   25.2088 H      401  UVC401      0.0000
     30 H         -83.1334   75.4887   24.1031 H      401  UVC401      0.0000
     31 H         -81.8287   75.7668   31.6385 H      401  UVC401      0.0000
     32 H         -79.3322   73.2893   30.9112 H      401  UVC401      0.0000
     33 H         -82.6781   71.8108   30.7549 H      401  UVC401      0.0000
     34 H         -76.4897   71.0315   24.8283 H      401  UVC401      0.0000
@<TRIPOS>BOND
     1     1     2   ar
     2     1     6   ar
     3     1     9    1
     4     2     3   ar
     5     2     7    2
     6     3     4   ar
     7     4     5   ar
     8     4     8    2
     9     5     6   ar
    10     5    22    1
    11     6    23    1
    12     9    10    1
    13     9    15    1
    14     9    24    1
    15    10    11    1
    16    10    12    1
    17    10    25    1
    18    11    18    1
    19    12    13    1
    20    12    14    1
    21    12    26    1
    22    13    15    1
    23    13    16    1
    24    13    27    1
    25    14    18    1
    26    16    17    1
    27    16    28    1
    28    16    29    1
    29    17    30    1
    30    18    19    1
    31    18    20    1
    32    18    21    1
    33    19    31    1
    34    20    32    1
    35    21    33    1
    36     3    34    1

