@<TRIPOS>MOLECULE
UVC_1_A_401
 34 36 0 0 0
SMALL
NO_CHARGES

@<TRIPOS>ATOM
      1 N1        -92.5860   20.4390  -25.9770 N.ar   401  UVC401      0.0000
      2 C2        -91.2470   20.4170  -26.0640 C.ar   401  UVC401      0.0000
      3 N3        -90.4990   19.8900  -25.0830 N.ar   401  UVC401      0.0000
      4 C4        -91.0680   19.3670  -23.9890 C.ar   401  UVC401      0.0000
      5 C5        -92.4510   19.3730  -23.8710 C.ar   401  UVC401      0.0000
      6 C6        -93.2000   19.9270  -24.9020 C.ar   401  UVC401      0.0000
      7 O2        -90.6840   20.9000  -27.0710 O.2    401  UVC401      0.0000
      8 O4        -90.3570   18.8780  -23.0830 O.2    401  UVC401      0.0000
      9 C1'       -93.4030   21.0170  -27.0700 C.3    401  UVC401      0.0000
     10 C2'       -93.5580   20.0400  -28.2410 C.3    401  UVC401      0.0000
     11 O2'       -93.5900   20.7630  -29.4610 O.3    401  UVC401      0.0000
     12 C3'       -94.9360   19.4430  -27.9810 C.3    401  UVC401      0.0000
     13 C4'       -95.6880   20.6120  -27.3670 C.3    401  UVC401      0.0000
     14 O3'       -95.5370   18.9790  -29.1780 O.3    401  UVC401      0.0000
     15 O4'       -94.6900   21.2840  -26.5600 O.3    401  UVC401      0.0000
     16 C5'       -96.8770   20.2620  -26.5100 C.3    401  UVC401      0.0000
     17 O5'       -96.4800   19.6040  -25.3160 O.3    401  UVC401      0.0000
     18 V         -94.9050   20.0100  -30.7730 V      401  UVC401      0.0000
     19 O1V       -96.2710   19.1830  -32.1450 O.3    401  UVC401      0.0000
     20 O2V       -93.3400   19.2650  -31.9700 O.3    401  UVC401      0.0000
     21 O3V       -95.7660   21.9050  -31.0850 O.3    401  UVC401      0.0000
     22 H         -92.9150   18.9424  -22.9700 H      401  UVC401      0.0000
     23 H         -94.2912   19.9448  -24.8292 H      401  UVC401      0.0000
     24 H         -92.9531   21.9680  -27.4283 H      401  UVC401      0.0000
     25 H         -92.7700   19.2627  -28.2790 H      401  UVC401      0.0000
     26 H         -94.8604   18.6105  -27.2514 H      401  UVC401      0.0000
     27 H         -96.0135   21.3017  -28.1758 H      401  UVC401      0.0000
     28 H         -97.5795   19.6156  -27.0770 H      401  UVC401      0.0000
     29 H         -97.4299   21.1882  -26.2434 H      401  UVC401      0.0000
     30 H         -97.2570   19.4226  -24.8039 H      401  UVC401      0.0000
     31 H         -95.7095   18.8862  -32.8485 H      401  UVC401      0.0000
     32 H         -92.6321   19.8715  -31.7986 H      401  UVC401      0.0000
     33 H         -96.6361   21.6933  -31.3964 H      401  UVC401      0.0000
     34 H         -89.4747   19.8888  -25.1738 H      401  UVC401      0.0000
@<TRIPOS>BOND
     1     1     2   ar
     2     1     6   ar
     3     1     9    1
     4     2     3   ar
     5     2     7    2
     6     3     4   ar
     7     4     5   ar
     8     4     8    2
     9     5     6   ar
    10     5    22    1
    11     6    23    1
    12     9    10    1
    13     9    15    1
    14     9    24    1
    15    10    11    1
    16    10    12    1
    17    10    25    1
    18    11    18    1
    19    12    13    1
    20    12    14    1
    21    12    26    1
    22    13    15    1
    23    13    16    1
    24    13    27    1
    25    14    18    1
    26    16    17    1
    27    16    28    1
    28    16    29    1
    29    17    30    1
    30    18    19    1
    31    18    20    1
    32    18    21    1
    33    19    31    1
    34    20    32    1
    35    21    33    1
    36     3    34    1

