UVC_1_A_401
  -ISIS-            3D

 34 36  0  0  0  0  0  0  0  0  1 V2000
  -92.5860   20.4390  -25.9770 N   0  0  0  0  0
  -91.2470   20.4170  -26.0640 C   0  0  0  0  0
  -90.4990   19.8900  -25.0830 N   0  0  0  0  0
  -91.0680   19.3670  -23.9890 C   0  0  0  0  0
  -92.4510   19.3730  -23.8710 C   0  0  0  0  0
  -93.2000   19.9270  -24.9020 C   0  0  0  0  0
  -90.6840   20.9000  -27.0710 O   0  0  0  0  0
  -90.3570   18.8780  -23.0830 O   0  0  0  0  0
  -93.4030   21.0170  -27.0700 C   0  0  0  0  0
  -93.5580   20.0400  -28.2410 C   0  0  0  0  0
  -93.5900   20.7630  -29.4610 O   0  0  0  0  0
  -94.9360   19.4430  -27.9810 C   0  0  0  0  0
  -95.6880   20.6120  -27.3670 C   0  0  0  0  0
  -95.5370   18.9790  -29.1780 O   0  0  0  0  0
  -94.6900   21.2840  -26.5600 O   0  0  0  0  0
  -96.8770   20.2620  -26.5100 C   0  0  0  0  0
  -96.4800   19.6040  -25.3160 O   0  0  0  0  0
  -94.9050   20.0100  -30.7730 V   0  0  0  0  0
  -96.2710   19.1830  -32.1450 O   0  0  0  0  0
  -93.3400   19.2650  -31.9700 O   0  0  0  0  0
  -95.7660   21.9050  -31.0850 O   0  0  0  0  0
  -92.9150   18.9424  -22.9700 H   0  0  0  0  0
  -94.2912   19.9448  -24.8292 H   0  0  0  0  0
  -92.9531   21.9680  -27.4283 H   0  0  0  0  0
  -92.7700   19.2627  -28.2790 H   0  0  0  0  0
  -94.8604   18.6105  -27.2514 H   0  0  0  0  0
  -96.0135   21.3017  -28.1758 H   0  0  0  0  0
  -97.5795   19.6156  -27.0770 H   0  0  0  0  0
  -97.4299   21.1882  -26.2434 H   0  0  0  0  0
  -97.2570   19.4226  -24.8039 H   0  0  0  0  0
  -95.7095   18.8862  -32.8485 H   0  0  0  0  0
  -92.6321   19.8715  -31.7986 H   0  0  0  0  0
  -96.6361   21.6933  -31.3964 H   0  0  0  0  0
  -89.4747   19.8888  -25.1738 H   0  0  0  0  0
  1  2  1  0  0  0
  1  6  1  0  0  0
  1  9  1  0  0  0
  2  3  1  0  0  0
  2  7  2  0  0  0
  3  4  1  0  0  0
  4  5  1  0  0  0
  4  8  2  0  0  0
  5  6  2  0  0  0
  5 22  1  0  0  0
  6 23  1  0  0  0
  9 10  1  0  0  0
  9 15  1  0  0  0
  9 24  1  0  0  0
 10 11  1  0  0  0
 10 12  1  0  0  0
 10 25  1  0  0  0
 11 18  1  0  0  0
 12 13  1  0  0  0
 12 14  1  0  0  0
 12 26  1  0  0  0
 13 15  1  0  0  0
 13 16  1  0  0  0
 13 27  1  0  0  0
 14 18  1  0  0  0
 16 17  1  0  0  0
 16 28  1  0  0  0
 16 29  1  0  0  0
 17 30  1  0  0  0
 18 19  1  0  0  0
 18 20  1  0  0  0
 18 21  1  0  0  0
 19 31  1  0  0  0
 20 32  1  0  0  0
 21 33  1  0  0  0
  3 34  1  0  0  0
M  END
$$$$
