UVC_2_B_401
  -ISIS-            3D

 34 36  0  0  0  0  0  0  0  0  1 V2000
  -79.4810   72.1820   25.4000 N   0  0  0  0  0
  -78.3300   71.5240   25.5890 C   0  0  0  0  0
  -77.3630   71.5480   24.6620 N   0  0  0  0  0
  -77.5200   72.2340   23.5240 C   0  0  0  0  0
  -78.7020   72.9280   23.3050 C   0  0  0  0  0
  -79.6880   72.8850   24.2810 C   0  0  0  0  0
  -78.1570   70.8720   26.6400 O   0  0  0  0  0
  -76.6120   72.2520   22.6640 O   0  0  0  0  0
  -80.5340   72.1420   26.4390 C   0  0  0  0  0
  -80.2690   73.1580   27.5560 C   0  0  0  0  0
  -80.6460   72.5900   28.8020 O   0  0  0  0  0
  -81.2310   74.2880   27.1970 C   0  0  0  0  0
  -82.3990   73.5410   26.5780 C   0  0  0  0  0
  -81.6170   75.0380   28.3320 O   0  0  0  0  0
  -81.7650   72.4740   25.8360 O   0  0  0  0  0
  -83.2860   74.3440   25.6600 C   0  0  0  0  0
  -82.5380   74.9700   24.6280 O   0  0  0  0  0
  -81.5680   73.9150   29.9860 V   0  0  0  0  0
  -82.5400   75.3790   31.1460 O   0  0  0  0  0
  -79.8910   73.9740   31.2540 O   0  0  0  0  0
  -83.1240   72.5500   30.3630 O   0  0  0  0  0
  -78.8260   73.4918   22.3672 H   0  0  0  0  0
  -80.6316   73.4249   24.1368 H   0  0  0  0  0
  -80.6148   71.1216   26.8724 H   0  0  0  0  0
  -79.2185   73.5068   27.5982 H   0  0  0  0  0
  -80.7609   74.9591   26.4492 H   0  0  0  0  0
  -83.0202   73.0900   27.3820 H   0  0  0  0  0
  -83.8203   75.1221   26.2458 H   0  0  0  0  0
  -84.0602   73.6878   25.2088 H   0  0  0  0  0
  -83.1334   75.4887   24.1031 H   0  0  0  0  0
  -81.8287   75.7668   31.6385 H   0  0  0  0  0
  -79.3322   73.2893   30.9112 H   0  0  0  0  0
  -82.6781   71.8108   30.7549 H   0  0  0  0  0
  -76.4897   71.0315   24.8283 H   0  0  0  0  0
  1  2  1  0  0  0
  1  6  1  0  0  0
  1  9  1  0  0  0
  2  3  1  0  0  0
  2  7  2  0  0  0
  3  4  1  0  0  0
  4  5  1  0  0  0
  4  8  2  0  0  0
  5  6  2  0  0  0
  5 22  1  0  0  0
  6 23  1  0  0  0
  9 10  1  0  0  0
  9 15  1  0  0  0
  9 24  1  0  0  0
 10 11  1  0  0  0
 10 12  1  0  0  0
 10 25  1  0  0  0
 11 18  1  0  0  0
 12 13  1  0  0  0
 12 14  1  0  0  0
 12 26  1  0  0  0
 13 15  1  0  0  0
 13 16  1  0  0  0
 13 27  1  0  0  0
 14 18  1  0  0  0
 16 17  1  0  0  0
 16 28  1  0  0  0
 16 29  1  0  0  0
 17 30  1  0  0  0
 18 19  1  0  0  0
 18 20  1  0  0  0
 18 21  1  0  0  0
 19 31  1  0  0  0
 20 32  1  0  0  0
 21 33  1  0  0  0
  3 34  1  0  0  0
M  END
$$$$
