@<TRIPOS>MOLECULE
5OF_1_A_201
 21 22 0 0 0
SMALL
NO_CHARGES

@<TRIPOS>ATOM
      1 C10       -44.8480  -28.7850    0.5350 C.ar   201  5OF201      0.0000
      2 C13       -46.6950  -30.8760    0.3060 C.ar   201  5OF201      0.0000
      3 C15       -44.4240  -30.0710    0.6330 C.ar   201  5OF201      0.0000
      4 O01       -43.2700  -33.5660    2.3770 O.co2  201  5OF201     -0.5000
      5 C02       -42.9490  -32.3830    2.3490 C.2    201  5OF201      0.0000
      6 O03       -42.9240  -31.6500    3.3600 O.co2  201  5OF201     -0.5000
      7 C04       -42.5810  -31.8770    0.9740 C.3    201  5OF201      0.0000
      8 C05       -42.9610  -30.4290    0.8780 C.ar   201  5OF201      0.0000
      9 N06       -41.9790  -29.4250    0.9960 N.ar   201  5OF201      0.0000
     10 N07       -42.4180  -28.1000    0.9230 N.ar   201  5OF201      0.0000
     11 C08       -43.7930  -27.6900    0.7020 C.ar   201  5OF201      0.0000
     12 O09       -44.0350  -26.5720    0.6110 O.2    201  5OF201      0.0000
     13 C11       -46.2030  -28.5150    0.3390 C.ar   201  5OF201      0.0000
     14 C12       -47.1190  -29.5560    0.2060 C.ar   201  5OF201      0.0000
     15 C14       -45.3420  -31.1240    0.5190 C.ar   201  5OF201      0.0000
     16 H         -47.4157  -31.7060    0.2162 H      201  5OF201      0.0000
     17 H         -43.0289  -32.4740    0.1507 H      201  5OF201      0.0000
     18 H         -41.4790  -31.9693    0.8398 H      201  5OF201      0.0000
     19 H         -46.5530  -27.4709    0.2805 H      201  5OF201      0.0000
     20 H         -48.1850  -29.3317    0.0320 H      201  5OF201      0.0000
     21 H         -45.0414  -32.1797    0.5957 H      201  5OF201      0.0000
@<TRIPOS>BOND
     1     1     3   ar
     2     1    11   ar
     3     1    13   ar
     4     2    14   ar
     5     2    15   ar
     6     2    16    1
     7     3     8   ar
     8     3    15   ar
     9     4     5   ar
    10     5     6   ar
    11     5     7    1
    12     7     8    1
    13     7    17    1
    14     7    18    1
    15     8     9   ar
    16     9    10   ar
    17    10    11   ar
    18    11    12    2
    19    13    14   ar
    20    13    19    1
    21    14    20    1
    22    15    21    1

