@<TRIPOS>MOLECULE
DMS_2_A_408
 10 9 0 0 0
SMALL
NO_CHARGES

@<TRIPOS>ATOM
      1 S          -6.1480  -22.6400    1.3690 S.o    408  DMS408      0.0000
      2 O          -6.5140  -23.7700    0.4760 O.2    408  DMS408      0.0000
      3 C1         -4.9860  -21.5150    0.5450 C.3    408  DMS408      0.0000
      4 C2         -7.5760  -21.5420    1.5950 C.3    408  DMS408      0.0000
      5 H          -4.7651  -20.6566    1.2117 H      408  DMS408      0.0000
      6 H          -5.4288  -21.1466   -0.4030 H      408  DMS408      0.0000
      7 H          -4.0448  -22.0590    0.3246 H      408  DMS408      0.0000
      8 H          -7.2847  -20.6810    2.2306 H      408  DMS408      0.0000
      9 H          -8.3937  -22.1032    2.0916 H      408  DMS408      0.0000
     10 H          -7.9273  -21.1753    0.6088 H      408  DMS408      0.0000
@<TRIPOS>BOND
     1     1     2    2
     2     1     3    1
     3     1     4    1
     4     3     5    1
     5     3     6    1
     6     3     7    1
     7     4     8    1
     8     4     9    1
     9     4    10    1

