DMS_2_A_405
  -ISIS-            3D

 10  9  0  0  0  0  0  0  0  0  1 V2000
   -2.3990  -18.9840   -8.1270 S   0  0  0  0  0
   -2.2490  -20.4750   -7.9910 O   0  0  0  0  0
   -1.1180  -18.3790   -9.2710 C   0  0  0  0  0
   -3.8820  -18.6840   -9.1380 C   0  0  0  0  0
   -1.2792  -17.2998   -9.4701 H   0  0  0  0  0
   -1.1660  -18.9454  -10.2236 H   0  0  0  0  0
   -0.1198  -18.5206   -8.8087 H   0  0  0  0  0
   -3.9755  -17.5984   -9.3452 H   0  0  0  0  0
   -4.7783  -19.0286   -8.5828 H   0  0  0  0  0
   -3.8051  -19.2407  -10.0944 H   0  0  0  0  0
  1  2  2  0  0  0
  1  3  1  0  0  0
  1  4  1  0  0  0
  3  5  1  0  0  0
  3  6  1  0  0  0
  3  7  1  0  0  0
  4  8  1  0  0  0
  4  9  1  0  0  0
  4 10  1  0  0  0
M  END
$$$$
