@<TRIPOS>MOLECULE
DMS_1_A_403
 10 9 0 0 0
SMALL
NO_CHARGES

@<TRIPOS>ATOM
      1 S           7.0130  -28.1200   21.5410 S.o    403  DMS403      0.0000
      2 O           7.8020  -27.1190   22.2930 O.2    403  DMS403      0.0000
      3 C1          5.6670  -28.6590   22.6710 C.3    403  DMS403      0.0000
      4 C2          6.0320  -27.3260   20.2740 C.3    403  DMS403      0.0000
      5 H           4.9940  -29.3598   22.1359 H      403  DMS403      0.0000
      6 H           5.0901  -27.7765   23.0160 H      403  DMS403      0.0000
      7 H           6.1114  -29.1748   23.5467 H      403  DMS403      0.0000
      8 H           5.3613  -28.0711   19.7994 H      403  DMS403      0.0000
      9 H           6.7048  -26.8998   19.5020 H      403  DMS403      0.0000
     10 H           5.4250  -26.5110   20.7188 H      403  DMS403      0.0000
@<TRIPOS>BOND
     1     1     2    2
     2     1     3    1
     3     1     4    1
     4     3     5    1
     5     3     6    1
     6     3     7    1
     7     4     8    1
     8     4     9    1
     9     4    10    1

