54T_1_A_201
  -ISIS-            3D

 16 17  0  0  0  0  0  0  0  0  1 V2000
  -50.3770  -28.9390    6.2400 N   0  0  0  0  0
  -47.0360  -29.4480    4.7310 C   0  0  0  0  0
  -47.3540  -29.3260    3.3800 C   0  0  0  0  0
  -49.8560  -29.1020    7.4820 C   0  0  0  0  0
  -46.1320  -29.4690    2.0720 Cl  0  0  0  0  0
  -48.6550  -29.0640    2.9850 C   0  0  0  0  0
  -48.0670  -29.3220    5.6790 C   0  0  0  0  0
  -48.2090  -29.4120    7.3430 S   0  0  0  0  0
  -50.6640  -29.0390    8.6780 N   0  0  0  0  0
  -49.3530  -29.0590    5.2540 C   0  0  0  0  0
  -49.6650  -28.9210    3.8960 C   0  0  0  0  0
  -46.0021  -29.6462    5.0556 H   0  0  0  0  0
  -48.8909  -28.9633    1.9118 H   0  0  0  0  0
  -50.1730  -29.1878    9.5685 H   0  0  0  0  0
  -51.6621  -28.8498    8.5254 H   0  0  0  0  0
  -50.6980  -28.7084    3.5769 H   0  0  0  0  0
  1  4  2  0  0  0
  1 10  1  0  0  0
  2  3  2  0  0  0
  2  7  1  0  0  0
  2 12  1  0  0  0
  3  5  1  0  0  0
  3  6  1  0  0  0
  4  8  1  0  0  0
  4  9  1  0  0  0
  6 11  2  0  0  0
  6 13  1  0  0  0
  7  8  1  0  0  0
  7 10  2  0  0  0
  9 14  1  0  0  0
  9 15  1  0  0  0
 10 11  1  0  0  0
 11 16  1  0  0  0
M  END
$$$$
