@<TRIPOS>MOLECULE
DMS_2_A_401
 10 9 0 0 0
SMALL
NO_CHARGES

@<TRIPOS>ATOM
      1 S          -6.9800  -28.3080  -21.2520 S.o    401  DMS401      0.0000
      2 O          -7.5090  -27.2760  -22.1840 O.2    401  DMS401      0.0000
      3 C1         -5.7300  -29.1770  -22.1700 C.3    401  DMS401      0.0000
      4 C2         -5.9150  -27.4570  -20.1280 C.3    401  DMS401      0.0000
      5 H          -5.1840  -29.8704  -21.4982 H      401  DMS401      0.0000
      6 H          -5.0138  -28.4608  -22.6228 H      401  DMS401      0.0000
      7 H          -6.2113  -29.7661  -22.9774 H      401  DMS401      0.0000
      8 H          -5.3676  -28.1892  -19.5001 H      401  DMS401      0.0000
      9 H          -6.5234  -26.8052  -19.4681 H      401  DMS401      0.0000
     10 H          -5.1871  -26.8297  -20.6825 H      401  DMS401      0.0000
@<TRIPOS>BOND
     1     1     2    2
     2     1     3    1
     3     1     4    1
     4     3     5    1
     5     3     6    1
     6     3     7    1
     7     4     8    1
     8     4     9    1
     9     4    10    1

