@<TRIPOS>MOLECULE
DMS_2_A_403
 10 9 0 0 0
SMALL
NO_CHARGES

@<TRIPOS>ATOM
      1 S          -2.2340  -19.2220   -8.0780 S.o    403  DMS403      0.0000
      2 O          -3.5500  -18.9420   -8.7640 O.2    403  DMS403      0.0000
      3 C1         -1.0030  -18.2990   -8.9670 C.3    403  DMS403      0.0000
      4 C2         -1.7380  -20.8450   -8.6150 C.3    403  DMS403      0.0000
      5 H           0.0089  -18.5760   -8.6064 H      403  DMS403      0.0000
      6 H          -1.1608  -17.2151   -8.7916 H      403  DMS403      0.0000
      7 H          -1.0769  -18.5028  -10.0546 H      403  DMS403      0.0000
      8 H          -0.7075  -21.0589   -8.2643 H      403  DMS403      0.0000
      9 H          -1.7745  -20.9144   -9.7213 H      403  DMS403      0.0000
     10 H          -2.4268  -21.5995   -8.1831 H      403  DMS403      0.0000
@<TRIPOS>BOND
     1     1     2    2
     2     1     3    1
     3     1     4    1
     4     3     5    1
     5     3     6    1
     6     3     7    1
     7     4     8    1
     8     4     9    1
     9     4    10    1

