EDO_1_B_401
  -ISIS-            3D

 10  9  0  0  0  0  0  0  0  0  1 V2000
   -4.6610    9.1720   14.5200 C   0  0  0  0  0
   -3.8430    9.3250   13.3570 O   0  0  0  0  0
   -5.7740   10.2070   14.4380 C   0  0  0  0  0
   -6.6550    9.9880   13.3100 O   0  0  0  0  0
   -4.0485    9.3099   15.4356 H   0  0  0  0  0
   -5.0777    8.1445   14.5437 H   0  0  0  0  0
   -3.3667   10.1422   13.4209 H   0  0  0  0  0
   -5.3456   11.2300   14.3758 H   0  0  0  0  0
   -6.3764   10.1706   15.3709 H   0  0  0  0  0
   -7.3129   10.6714   13.3069 H   0  0  0  0  0
  1  2  1  0  0  0
  1  3  1  0  0  0
  1  5  1  0  0  0
  1  6  1  0  0  0
  2  7  1  0  0  0
  3  4  1  0  0  0
  3  8  1  0  0  0
  3  9  1  0  0  0
  4 10  1  0  0  0
M  END
$$$$
