@<TRIPOS>MOLECULE
SFY_1_A_404
 28 29 0 0 0
SMALL
NO_CHARGES

@<TRIPOS>ATOM
      1 OAB        24.4960    2.3670   24.7460 O.2    404  SFY404      0.0000
      2 SAQ        23.4510    2.9160   25.5040 S.o    404  SFY404      0.0000
      3 OAC        22.3330    2.1170   25.8910 O.2    404  SFY404      0.0000
      4 CAP        22.8930    4.2680   24.6920 C.ar   404  SFY404      0.0000
      5 CAJ        21.9770    5.1910   25.2480 C.ar   404  SFY404      0.0000
      6 CAH        21.4340    6.2590   24.5220 C.ar   404  SFY404      0.0000
      7 CAN        21.8130    6.4750   23.1570 C.ar   404  SFY404      0.0000
      8 NAA        21.2800    7.5680   22.4640 N.3    404  SFY404      0.0000
      9 CAI        22.7470    5.5740   22.5630 C.ar   404  SFY404      0.0000
     10 CAK        23.2590    4.5140   23.3220 C.ar   404  SFY404      0.0000
     11 NAM        24.0100    3.4090   27.0110 N.am   404  SFY404      0.0000
     12 CAO        24.9860    4.3120   27.2420 C.ar   404  SFY404      0.0000
     13 CAG        25.7320    4.9300   26.2430 C.ar   404  SFY404      0.0000
     14 CAE        26.5870    5.9160   26.6700 C.ar   404  SFY404      0.0000
     15 CAD        26.6870    6.2620   28.0160 C.ar   404  SFY404      0.0000
     16 CAF        25.9040    5.5920   28.9530 C.ar   404  SFY404      0.0000
     17 NAL        25.0600    4.6130   28.6080 N.ar   404  SFY404      0.0000
     18 H          21.6539    5.0615   26.2959 H      404  SFY404      0.0000
     19 H          20.7151    6.9389   25.0083 H      404  SFY404      0.0000
     20 H          21.5906    7.6842   21.4910 H      404  SFY404      0.0000
     21 H          20.6216    8.1666   22.9786 H      404  SFY404      0.0000
     22 H          23.0632    5.7117   21.5161 H      404  SFY404      0.0000
     23 H          23.9694    3.8324   22.8225 H      404  SFY404      0.0000
     24 H          23.6167    3.0485   27.8873 H      404  SFY404      0.0000
     25 H          25.6553    4.6774   25.1756 H      404  SFY404      0.0000
     26 H          27.2081    6.4494   25.9302 H      404  SFY404      0.0000
     27 H          27.3786    7.0593   28.3354 H      404  SFY404      0.0000
     28 H          25.9767    5.8592   30.0205 H      404  SFY404      0.0000
@<TRIPOS>BOND
     1     1     2    2
     2     2     3    2
     3     2     4    1
     4     2    11    1
     5     4     5   ar
     6     4    10   ar
     7     5     6   ar
     8     5    18    1
     9     6     7   ar
    10     6    19    1
    11     7     8    1
    12     7     9   ar
    13     8    20    1
    14     8    21    1
    15     9    10   ar
    16     9    22    1
    17    10    23    1
    18    11    12    1
    19    11    24    1
    20    12    13   ar
    21    12    17   ar
    22    13    14   ar
    23    13    25    1
    24    14    15   ar
    25    14    26    1
    26    15    16   ar
    27    15    27    1
    28    16    17   ar
    29    16    28    1

