MLI_1_A_201
  -ISIS-            3D

  9  8  0  0  0  0  0  0  0  0  1 V2000
  -35.2470   30.5360  -12.4360 C   0  0  0  0  0
  -35.0730   29.1000  -11.9260 C   0  0  0  0  0
  -34.1920   31.2150  -13.3780 C   0  0  0  0  0
  -35.6400   28.0590  -12.4180 O   0  0  0  0  0
  -34.3070   29.0310  -10.9170 O   0  0  0  0  0
  -34.2700   31.2270  -14.6260 O   0  0  0  0  0
  -33.2120   31.7780  -12.7810 O   0  0  0  0  0
  -35.3842   31.2012  -11.5513 H   0  0  0  0  0
  -36.2245   30.5739  -12.9714 H   0  0  0  0  0
  1  2  1  0  0  0
  1  3  1  0  0  0
  1  8  1  0  0  0
  1  9  1  0  0  0
  2  4  2  0  0  0
  2  5  2  0  0  0
  3  6  2  0  0  0
  3  7  2  0  0  0
M  END
$$$$
