MLI_1_A_202
  -ISIS-            3D

  9  8  0  0  0  0  0  0  0  0  1 V2000
  -56.1020   44.5200   -5.8190 C   0  0  0  0  0
  -57.3400   44.8260   -6.7420 C   0  0  0  0  0
  -54.6600   45.1920   -5.9400 C   0  0  0  0  0
  -57.5180   43.9880   -7.7120 O   0  0  0  0  0
  -58.1480   45.7970   -6.5530 O   0  0  0  0  0
  -53.7990   44.5310   -6.6600 O   0  0  0  0  0
  -54.3160   46.2940   -5.4100 O   0  0  0  0  0
  -55.9415   43.4165   -5.8472 H   0  0  0  0  0
  -56.4420   44.7242   -4.7763 H   0  0  0  0  0
  1  2  1  0  0  0
  1  3  1  0  0  0
  1  8  1  0  0  0
  1  9  1  0  0  0
  2  4  2  0  0  0
  2  5  2  0  0  0
  3  6  2  0  0  0
  3  7  2  0  0  0
M  END
$$$$
