SAM_1_A_7102
  -ISIS-            3D

 50 52  0  0  0  0  0  0  0  0  1 V2000
  -60.7490   65.5740    1.8930 N   0  3  0  0  0
  -60.8020   67.0010    1.4630 C   0  0  0  0  0
  -62.0570   67.6600    2.0510 C   0  0  0  0  0
  -62.6280   68.5930    1.4790 O   0  0  0  0  0
  -62.5170   67.2680    3.1280 O   0  0  0  0  0
  -60.8150   67.1160   -0.0660 C   0  0  0  0  0
  -59.5560   66.5800   -0.7170 C   0  0  0  0  0
  -59.5220   66.9440   -2.4870 S   0  0  0  0  0
  -60.7620   65.8200   -3.1110 C   0  0  0  0  0
  -57.9960   66.0760   -2.9290 C   0  0  0  0  0
  -56.7600   66.6940   -2.3060 C   0  0  0  0  0
  -55.6200   65.8500   -2.5740 O   0  0  0  0  0
  -56.3790   68.0870   -2.8260 C   0  0  0  0  0
  -56.5080   69.0510   -1.7870 O   0  0  0  0  0
  -54.9230   67.9340   -3.2970 C   0  0  0  0  0
  -54.1010   69.0310   -2.9630 O   0  0  0  0  0
  -54.4870   66.6790   -2.5530 C   0  0  0  0  0
  -53.3680   65.9760   -3.1640 N   0  0  0  0  0
  -53.2900   65.5090   -4.4520 C   0  0  0  0  0
  -52.1530   64.9190   -4.7230 N   0  0  0  0  0
  -51.4330   64.9970   -3.5390 C   0  0  0  0  0
  -50.1440   64.5490   -3.1800 C   0  0  0  0  0
  -49.3200   63.9150   -4.0110 N   0  0  0  0  0
  -49.7330   64.7880   -1.9120 N   0  0  0  0  0
  -50.5650   65.4320   -1.0820 C   0  0  0  0  0
  -51.7900   65.8980   -1.3080 N   0  0  0  0  0
  -52.1740   65.6470   -2.5690 C   0  0  0  0  0
  -61.5414   65.0545    1.5257 H   0  0  0  0  0
  -60.7583   65.5009    2.9063 H   0  0  0  0  0
  -59.9128   67.5387    1.8702 H   0  0  0  0  0
  -60.9255   68.1903   -0.3435 H   0  0  0  0  0
  -61.7099   66.5895   -0.4694 H   0  0  0  0  0
  -59.4594   65.4827   -0.5663 H   0  0  0  0  0
  -58.6759   67.0609   -0.2375 H   0  0  0  0  0
  -60.7165   65.7790   -4.2209 H   0  0  0  0  0
  -61.7820   66.1612   -2.8327 H   0  0  0  0  0
  -60.6301   64.7857   -2.7271 H   0  0  0  0  0
  -57.9042   66.0657   -4.0372 H   0  0  0  0  0
  -58.0854   65.0143   -2.6090 H   0  0  0  0  0
  -56.8767   66.7377   -1.2026 H   0  0  0  0  0
  -57.0084   68.3773   -3.6945 H   0  0  0  0  0
  -57.3430   69.4896   -1.8833 H   0  0  0  0  0
  -54.9109   67.7630   -4.3944 H   0  0  0  0  0
  -53.2035   68.7984   -3.1682 H   0  0  0  0  0
  -54.2196   66.9202   -1.5019 H   0  0  0  0  0
  -54.0472   65.5711   -5.2448 H   0  0  0  0  0
  -50.1768   65.5993   -0.0625 H   0  0  0  0  0
  -48.4108   63.6495   -3.6129 H   0  0  0  0  0
  -49.6536   63.7441   -4.9682 H   0  0  0  0  0
  -59.8959   65.1288    1.5701 H   0  0  0  0  0
  1  2  1  0  0  0
  1 28  1  0  0  0
  1 29  1  0  0  0
  2  3  1  0  0  0
  2  6  1  0  0  0
  2 30  1  0  0  0
  3  4  2  0  0  0
  3  5  2  0  0  0
  6  7  1  0  0  0
  6 31  1  0  0  0
  6 32  1  0  0  0
  7  8  1  0  0  0
  7 33  1  0  0  0
  7 34  1  0  0  0
  8  9  1  0  0  0
  8 10  1  0  0  0
  9 35  1  0  0  0
  9 36  1  0  0  0
  9 37  1  0  0  0
 10 11  1  0  0  0
 10 38  1  0  0  0
 10 39  1  0  0  0
 11 12  1  0  0  0
 11 13  1  0  0  0
 11 40  1  0  0  0
 12 17  1  0  0  0
 13 14  1  0  0  0
 13 15  1  0  0  0
 13 41  1  0  0  0
 14 42  1  0  0  0
 15 16  1  0  0  0
 15 17  1  0  0  0
 15 43  1  0  0  0
 16 44  1  0  0  0
 17 18  1  0  0  0
 17 45  1  0  0  0
 18 19  1  0  0  0
 18 27  1  0  0  0
 19 20  2  0  0  0
 19 46  1  0  0  0
 20 21  1  0  0  0
 21 22  2  0  0  0
 21 27  1  0  0  0
 22 23  1  0  0  0
 22 24  1  0  0  0
 23 48  1  0  0  0
 23 49  1  0  0  0
 24 25  2  0  0  0
 25 26  1  0  0  0
 25 47  1  0  0  0
 26 27  2  0  0  0
  1 50  1  0  0  0
M  END
$$$$
