DMS_1_A_1004
  -ISIS-            3D

 10  9  0  0  0  0  0  0  0  0  1 V2000
    2.4270  -19.0340    8.0700 S   0  0  0  0  0
    3.7640  -18.6360    8.6540 O   0  0  0  0  0
    1.2060  -18.0450    8.8960 C   0  0  0  0  0
    2.0120  -20.5890    8.8350 C   0  0  0  0  0
    0.1896  -18.3953    8.6228 H   0  0  0  0  0
    1.3167  -16.9875    8.5797 H   0  0  0  0  0
    1.3360  -18.1076    9.9958 H   0  0  0  0  0
    0.9747  -20.8757    8.5661 H   0  0  0  0  0
    2.1016  -20.5137    9.9381 H   0  0  0  0  0
    2.7061  -21.3731    8.4692 H   0  0  0  0  0
  1  2  2  0  0  0
  1  3  1  0  0  0
  1  4  1  0  0  0
  3  5  1  0  0  0
  3  6  1  0  0  0
  3  7  1  0  0  0
  4  8  1  0  0  0
  4  9  1  0  0  0
  4 10  1  0  0  0
M  END
$$$$
