@<TRIPOS>MOLECULE
DMS_1_A_1004
 10 9 0 0 0
SMALL
NO_CHARGES

@<TRIPOS>ATOM
      1 S           2.4270  -19.0340    8.0700 S.o   1004  DMS1004      0.0000
      2 O           3.7640  -18.6360    8.6540 O.2   1004  DMS1004      0.0000
      3 C1          1.2060  -18.0450    8.8960 C.3   1004  DMS1004      0.0000
      4 C2          2.0120  -20.5890    8.8350 C.3   1004  DMS1004      0.0000
      5 H           0.1896  -18.3953    8.6228 H     1004  DMS1004      0.0000
      6 H           1.3167  -16.9875    8.5797 H     1004  DMS1004      0.0000
      7 H           1.3360  -18.1076    9.9958 H     1004  DMS1004      0.0000
      8 H           0.9747  -20.8757    8.5661 H     1004  DMS1004      0.0000
      9 H           2.1016  -20.5137    9.9381 H     1004  DMS1004      0.0000
     10 H           2.7061  -21.3731    8.4692 H     1004  DMS1004      0.0000
@<TRIPOS>BOND
     1     1     2    2
     2     1     3    1
     3     1     4    1
     4     3     5    1
     5     3     6    1
     6     3     7    1
     7     4     8    1
     8     4     9    1
     9     4    10    1

