@<TRIPOS>MOLECULE
DMS_2_A_1002
 10 9 0 0 0
SMALL
NO_CHARGES

@<TRIPOS>ATOM
      1 S          -7.1270  -28.2390  -21.1950 S.o   1002  DMS1002      0.0000
      2 O          -8.0970  -27.4180  -21.9920 O.2   1002  DMS1002      0.0000
      3 C1         -5.8930  -28.8000  -22.3360 C.3   1002  DMS1002      0.0000
      4 C2         -6.1190  -27.0930  -20.3100 C.3   1002  DMS1002      0.0000
      5 H          -5.0678  -29.2962  -21.7855 H     1002  DMS1002      0.0000
      6 H          -5.4882  -27.9480  -22.9203 H     1002  DMS1002      0.0000
      7 H          -6.3467  -29.5323  -23.0346 H     1002  DMS1002      0.0000
      8 H          -5.2879  -27.6296  -19.8084 H     1002  DMS1002      0.0000
      9 H          -6.7325  -26.5857  -19.5378 H     1002  DMS1002      0.0000
     10 H          -5.7029  -26.3284  -20.9981 H     1002  DMS1002      0.0000
@<TRIPOS>BOND
     1     1     2    2
     2     1     3    1
     3     1     4    1
     4     3     5    1
     5     3     6    1
     6     3     7    1
     7     4     8    1
     8     4     9    1
     9     4    10    1

