EDO_1_B_201
  -ISIS-            3D

 10  9  0  0  0  0  0  0  0  0  1 V2000
    8.3870   -6.1550  -29.7280 C   0  0  0  0  0
    8.1020   -7.3820  -29.0400 O   0  0  0  0  0
    7.1650   -5.2400  -29.6770 C   0  0  0  0  0
    6.0930   -5.8340  -30.4260 O   0  0  0  0  0
    8.6704   -6.3696  -30.7800 H   0  0  0  0  0
    9.2533   -5.6561  -29.2441 H   0  0  0  0  0
    8.8763   -7.9276  -29.0755 H   0  0  0  0  0
    7.4035   -4.2508  -30.1194 H   0  0  0  0  0
    6.8408   -5.0648  -28.6299 H   0  0  0  0  0
    5.9894   -6.7160  -30.0884 H   0  0  0  0  0
  1  2  1  0  0  0
  1  3  1  0  0  0
  1  5  1  0  0  0
  1  6  1  0  0  0
  2  7  1  0  0  0
  3  4  1  0  0  0
  3  8  1  0  0  0
  3  9  1  0  0  0
  4 10  1  0  0  0
M  END
$$$$
