EDO_1_C_202
  -ISIS-            3D

 10  9  0  0  0  0  0  0  0  0  1 V2000
  -19.2300   15.3340  -24.5840 C   0  0  0  0  0
  -17.8600   15.0700  -24.2560 O   0  0  0  0  0
  -19.7390   14.2790  -25.5580 C   0  0  0  0  0
  -20.3480   14.9230  -26.6840 O   0  0  0  0  0
  -19.3047   16.3488  -25.0289 H   0  0  0  0  0
  -19.8427   15.3361  -23.6580 H   0  0  0  0  0
  -17.5623   15.7465  -23.6624 H   0  0  0  0  0
  -20.4877   13.6231  -25.0675 H   0  0  0  0  0
  -18.9113   13.6222  -25.9007 H   0  0  0  0  0
  -19.8740   14.6717  -27.4655 H   0  0  0  0  0
  1  2  1  0  0  0
  1  3  1  0  0  0
  1  5  1  0  0  0
  1  6  1  0  0  0
  2  7  1  0  0  0
  3  4  1  0  0  0
  3  8  1  0  0  0
  3  9  1  0  0  0
  4 10  1  0  0  0
M  END
$$$$
