@<TRIPOS>MOLECULE
EDO_1_A_601
 10 9 0 0 0
SMALL
NO_CHARGES

@<TRIPOS>ATOM
      1 C1        -16.1620   -8.3870  -24.3380 C.3    601  EDO601      0.0000
      2 O1        -15.7670   -7.0150  -24.4330 O.3    601  EDO601      0.0000
      3 C2        -17.2520   -8.6820  -25.3580 C.3    601  EDO601      0.0000
      4 O2        -18.5010   -8.1730  -24.8810 O.3    601  EDO601      0.0000
      5 H         -16.5156   -8.5979  -23.3080 H      601  EDO601      0.0000
      6 H         -15.2779   -9.0355  -24.5161 H      601  EDO601      0.0000
      7 H         -15.2351   -6.9027  -25.2101 H      601  EDO601      0.0000
      8 H         -17.3446   -9.7795  -25.5024 H      601  EDO601      0.0000
      9 H         -17.0079   -8.2386  -26.3460 H      601  EDO601      0.0000
     10 H         -19.1562   -8.3045  -25.5539 H      601  EDO601      0.0000
@<TRIPOS>BOND
     1     1     2    1
     2     1     3    1
     3     1     5    1
     4     1     6    1
     5     2     7    1
     6     3     4    1
     7     3     8    1
     8     3     9    1
     9     4    10    1

