@<TRIPOS>MOLECULE
AG7_1_B_401
 84 86 0 0 0
SMALL
NO_CHARGES

@<TRIPOS>ATOM
      1 C01       -12.3690   -2.0500   21.7850 C.2    401  AG7401      0.0000
      2 C02       -13.2090   -3.2920   22.1600 C.3    401  AG7401      0.0000
      3 O03       -11.1860   -2.0680   21.8630 O.2    401  AG7401      0.0000
      4 C04       -12.3160   -4.4900   22.4890 C.3    401  AG7401      0.0000
      5 C05       -13.1560   -5.4260   23.3540 C.3    401  AG7401      0.0000
      6 C06       -12.3740   -6.7500   23.6380 C.ar   401  AG7401      0.0000
      7 C07       -12.9100   -8.0830   23.1050 C.ar   401  AG7401      0.0000
      8 C08       -12.1440   -9.3840   23.3900 C.ar   401  AG7401      0.0000
      9 C09       -10.8400   -9.3330   24.1980 C.ar   401  AG7401      0.0000
     10 C10       -10.3110   -8.0050   24.7380 C.ar   401  AG7401      0.0000
     11 C11       -11.0790   -6.7060   24.4560 C.ar   401  AG7401      0.0000
     12 N12       -10.4240   -5.5130   20.9750 N.am   401  AG7401      0.0000
     13 C13        -9.9990   -6.1820   19.7250 C.3    401  AG7401      0.0000
     14 C14        -8.7920   -5.4940   19.1000 C.3    401  AG7401      0.0000
     15 C15        -8.9960   -4.0430   19.0200 C.3    401  AG7401      0.0000
     16 C16        -7.6600   -3.3200   18.5060 C.2    401  AG7401      0.0000
     17 N17        -7.8750   -2.9760   17.2210 N.am   401  AG7401      0.0000
     18 O18        -6.6760   -3.1280   19.1300 O.2    401  AG7401      0.0000
     19 C19        -9.6390   -7.6530   20.0100 C.3    401  AG7401      0.0000
     20 C20       -10.8880   -8.5550   20.2160 C.3    401  AG7401      0.0000
     21 C21       -10.7330   -9.9100   19.4700 C.2    401  AG7401      0.0000
     22 O22       -11.8660  -10.5270   18.8720 O.3    401  AG7401      0.0000
     23 O23        -9.6740  -10.4330   19.3870 O.2    401  AG7401      0.0000
     24 C47       -11.8640   -5.1900   21.1910 C.2    401  AG7401      0.0000
     25 O48       -12.6630   -5.4690   20.3630 O.2    401  AG7401      0.0000
     26 C50       -12.6390  -11.3520   19.7330 C.3    401  AG7401      0.0000
     27 C53       -13.9170  -11.7930   18.9900 C.3    401  AG7401      0.0000
     28 C57       -13.0840   -0.7870   21.2930 C.3    401  AG7401      0.0000
     29 N58       -12.5790    0.3550   22.0370 N.am   401  AG7401      0.0000
     30 C59       -13.0000    0.6190   23.4190 C.2    401  AG7401      0.0000
     31 O60       -13.7700   -0.0870   23.9780 O.2    401  AG7401      0.0000
     32 C78       -12.7850   -0.5840   19.8130 C.3    401  AG7401      0.0000
     33 C81       -13.1440   -1.8390   19.0310 C.3    401  AG7401      0.0000
     34 F1        -10.1550  -10.4820   24.4570 F      401  AG7401      0.0000
     35 C82       -13.6000    0.6030   19.2730 C.3    401  AG7401      0.0000
     36 C83        -9.3340   -3.4350   16.8170 C.3    401  AG7401      0.0000
     37 C84       -10.0340   -3.6680   17.9780 C.3    401  AG7401      0.0000
     38 C1        -12.4170    1.8570   24.1420 C.ar   401  AG7401      0.0000
     39 C2        -13.1470    2.9020   24.6590 C.ar   401  AG7401      0.0000
     40 C3        -12.2760    3.7980   25.2130 C.ar   401  AG7401      0.0000
     41 O4        -11.0320    3.3220   25.0430 O.3    401  AG7401      0.0000
     42 N5        -11.1250    2.1130   24.3680 N.ar   401  AG7401      0.0000
     43 C4        -12.6260    5.1250   25.9110 C.3    401  AG7401      0.0000
     44 H         -13.9327   -3.5346   21.3511 H      401  AG7401      0.0000
     45 H         -13.8169   -3.0155   23.0521 H      401  AG7401      0.0000
     46 H         -11.4244   -4.1641   23.0725 H      401  AG7401      0.0000
     47 H         -14.1200   -5.6687   22.8525 H      401  AG7401      0.0000
     48 H         -13.4047   -4.9474   24.3286 H      401  AG7401      0.0000
     49 H         -13.8429   -8.1129   22.5192 H      401  AG7401      0.0000
     50 H         -12.5244  -10.3459   23.0201 H      401  AG7401      0.0000
     51 H          -9.3828   -7.9805   25.3260 H      401  AG7401      0.0000
     52 H         -10.6961   -5.7496   24.8473 H      401  AG7401      0.0000
     53 H          -9.7415   -5.2743   21.7071 H      401  AG7401      0.0000
     54 H         -10.8215   -6.1774   18.9733 H      401  AG7401      0.0000
     55 H          -8.5730   -5.9251   18.0964 H      401  AG7401      0.0000
     56 H          -7.8952   -5.6962   19.7315 H      401  AG7401      0.0000
     57 H          -9.2560   -3.6080   20.0127 H      401  AG7401      0.0000
     58 H          -7.1875   -2.4986   16.6258 H      401  AG7401      0.0000
     59 H          -8.9610   -7.7277   20.8911 H      401  AG7401      0.0000
     60 H          -9.0623   -8.0394   19.1382 H      401  AG7401      0.0000
     61 H         -11.8098   -8.0523   19.8532 H      401  AG7401      0.0000
     62 H         -11.0237   -8.7459   21.2983 H      401  AG7401      0.0000
     63 H         -12.9244  -10.8042   20.6552 H      401  AG7401      0.0000
     64 H         -12.0598  -12.2477   20.0418 H      401  AG7401      0.0000
     65 H         -14.5529  -12.4426   19.6301 H      401  AG7401      0.0000
     66 H         -13.6750  -12.3678   18.0696 H      401  AG7401      0.0000
     67 H         -14.5337  -10.9188   18.6873 H      401  AG7401      0.0000
     68 H         -14.1823   -0.9033   21.4446 H      401  AG7401      0.0000
     69 H         -11.8879    0.9900   21.6168 H      401  AG7401      0.0000
     70 H         -11.6970   -0.3748   19.6681 H      401  AG7401      0.0000
     71 H         -12.9578   -1.7053   17.9417 H      401  AG7401      0.0000
     72 H         -14.2183   -2.1073   19.1433 H      401  AG7401      0.0000
     73 H         -12.5511   -2.7243   19.3437 H      401  AG7401      0.0000
     74 H         -13.4072    0.7677   18.1892 H      401  AG7401      0.0000
     75 H         -13.3477    1.5559   19.7884 H      401  AG7401      0.0000
     76 H         -14.6954    0.4448   19.3905 H      401  AG7401      0.0000
     77 H          -9.2685   -4.3602   16.1980 H      401  AG7401      0.0000
     78 H          -9.8299   -2.6679   16.1789 H      401  AG7401      0.0000
     79 H         -10.5107   -2.7168   18.3116 H      401  AG7401      0.0000
     80 H         -10.8587   -4.4015   17.8560 H      401  AG7401      0.0000
     81 H         -14.2390    2.9960   24.6317 H      401  AG7401      0.0000
     82 H         -11.7086    5.6444   26.2657 H      401  AG7401      0.0000
     83 H         -13.2815    4.9474   26.7919 H      401  AG7401      0.0000
     84 H         -13.1596    5.8090   25.2148 H      401  AG7401      0.0000
@<TRIPOS>BOND
     1     1     2    1
     2     1     3    2
     3     1    28    1
     4     2     4    1
     5     2    44    1
     6     2    45    1
     7     4     5    1
     8     4    24    1
     9     4    46    1
    10     5     6    1
    11     5    47    1
    12     5    48    1
    13     6     7   ar
    14     6    11   ar
    15     7     8   ar
    16     7    49    1
    17     8     9   ar
    18     8    50    1
    19     9    10   ar
    20     9    34    1
    21    10    11   ar
    22    10    51    1
    23    11    52    1
    24    12    13    1
    25    12    24    1
    26    12    53    1
    27    13    14    1
    28    13    19    1
    29    13    54    1
    30    14    15    1
    31    14    55    1
    32    14    56    1
    33    15    16    1
    34    15    37    1
    35    15    57    1
    36    16    17    1
    37    16    18    2
    38    17    36    1
    39    17    58    1
    40    19    20    1
    41    19    59    1
    42    19    60    1
    43    20    21    1
    44    20    61    1
    45    20    62    1
    46    21    22    1
    47    21    23    2
    48    22    26    1
    49    24    25    2
    50    26    27    1
    51    26    63    1
    52    26    64    1
    53    27    65    1
    54    27    66    1
    55    27    67    1
    56    28    29    1
    57    28    32    1
    58    28    68    1
    59    29    30    1
    60    29    69    1
    61    30    31    2
    62    30    38    1
    63    32    33    1
    64    32    35    1
    65    32    70    1
    66    33    71    1
    67    33    72    1
    68    33    73    1
    69    35    74    1
    70    35    75    1
    71    35    76    1
    72    36    37    1
    73    36    77    1
    74    36    78    1
    75    37    79    1
    76    37    80    1
    77    38    39   ar
    78    38    42   ar
    79    39    40   ar
    80    39    81    1
    81    40    41   ar
    82    40    43    1
    83    41    42   ar
    84    43    82    1
    85    43    83    1
    86    43    84    1

