AG7_1_B_401
  -ISIS-            3D

 84 86  0  0  0  0  0  0  0  0  1 V2000
  -12.3690   -2.0500   21.7850 C   0  0  0  0  0
  -13.2090   -3.2920   22.1600 C   0  0  0  0  0
  -11.1860   -2.0680   21.8630 O   0  0  0  0  0
  -12.3160   -4.4900   22.4890 C   0  0  0  0  0
  -13.1560   -5.4260   23.3540 C   0  0  0  0  0
  -12.3740   -6.7500   23.6380 C   0  0  0  0  0
  -12.9100   -8.0830   23.1050 C   0  0  0  0  0
  -12.1440   -9.3840   23.3900 C   0  0  0  0  0
  -10.8400   -9.3330   24.1980 C   0  0  0  0  0
  -10.3110   -8.0050   24.7380 C   0  0  0  0  0
  -11.0790   -6.7060   24.4560 C   0  0  0  0  0
  -10.4240   -5.5130   20.9750 N   0  0  0  0  0
   -9.9990   -6.1820   19.7250 C   0  0  0  0  0
   -8.7920   -5.4940   19.1000 C   0  0  0  0  0
   -8.9960   -4.0430   19.0200 C   0  0  0  0  0
   -7.6600   -3.3200   18.5060 C   0  0  0  0  0
   -7.8750   -2.9760   17.2210 N   0  0  0  0  0
   -6.6760   -3.1280   19.1300 O   0  0  0  0  0
   -9.6390   -7.6530   20.0100 C   0  0  0  0  0
  -10.8880   -8.5550   20.2160 C   0  0  0  0  0
  -10.7330   -9.9100   19.4700 C   0  0  0  0  0
  -11.8660  -10.5270   18.8720 O   0  0  0  0  0
   -9.6740  -10.4330   19.3870 O   0  0  0  0  0
  -11.8640   -5.1900   21.1910 C   0  0  0  0  0
  -12.6630   -5.4690   20.3630 O   0  0  0  0  0
  -12.6390  -11.3520   19.7330 C   0  0  0  0  0
  -13.9170  -11.7930   18.9900 C   0  0  0  0  0
  -13.0840   -0.7870   21.2930 C   0  0  0  0  0
  -12.5790    0.3550   22.0370 N   0  0  0  0  0
  -13.0000    0.6190   23.4190 C   0  0  0  0  0
  -13.7700   -0.0870   23.9780 O   0  0  0  0  0
  -12.7850   -0.5840   19.8130 C   0  0  0  0  0
  -13.1440   -1.8390   19.0310 C   0  0  0  0  0
  -10.1550  -10.4820   24.4570 F   0  0  0  0  0
  -13.6000    0.6030   19.2730 C   0  0  0  0  0
   -9.3340   -3.4350   16.8170 C   0  0  0  0  0
  -10.0340   -3.6680   17.9780 C   0  0  0  0  0
  -12.4170    1.8570   24.1420 C   0  0  0  0  0
  -13.1470    2.9020   24.6590 C   0  0  0  0  0
  -12.2760    3.7980   25.2130 C   0  0  0  0  0
  -11.0320    3.3220   25.0430 O   0  0  0  0  0
  -11.1250    2.1130   24.3680 N   0  0  0  0  0
  -12.6260    5.1250   25.9110 C   0  0  0  0  0
  -13.9327   -3.5346   21.3511 H   0  0  0  0  0
  -13.8169   -3.0155   23.0521 H   0  0  0  0  0
  -11.4244   -4.1641   23.0725 H   0  0  0  0  0
  -14.1200   -5.6687   22.8525 H   0  0  0  0  0
  -13.4047   -4.9474   24.3286 H   0  0  0  0  0
  -13.8429   -8.1129   22.5192 H   0  0  0  0  0
  -12.5244  -10.3459   23.0201 H   0  0  0  0  0
   -9.3828   -7.9805   25.3260 H   0  0  0  0  0
  -10.6961   -5.7496   24.8473 H   0  0  0  0  0
   -9.7415   -5.2743   21.7071 H   0  0  0  0  0
  -10.8215   -6.1774   18.9733 H   0  0  0  0  0
   -8.5730   -5.9251   18.0964 H   0  0  0  0  0
   -7.8952   -5.6962   19.7315 H   0  0  0  0  0
   -9.2560   -3.6080   20.0127 H   0  0  0  0  0
   -7.1875   -2.4986   16.6258 H   0  0  0  0  0
   -8.9610   -7.7277   20.8911 H   0  0  0  0  0
   -9.0623   -8.0394   19.1382 H   0  0  0  0  0
  -11.8098   -8.0523   19.8532 H   0  0  0  0  0
  -11.0237   -8.7459   21.2983 H   0  0  0  0  0
  -12.9244  -10.8042   20.6552 H   0  0  0  0  0
  -12.0598  -12.2477   20.0418 H   0  0  0  0  0
  -14.5529  -12.4426   19.6301 H   0  0  0  0  0
  -13.6750  -12.3678   18.0696 H   0  0  0  0  0
  -14.5337  -10.9188   18.6873 H   0  0  0  0  0
  -14.1823   -0.9033   21.4446 H   0  0  0  0  0
  -11.8879    0.9900   21.6168 H   0  0  0  0  0
  -11.6970   -0.3748   19.6681 H   0  0  0  0  0
  -12.9578   -1.7053   17.9417 H   0  0  0  0  0
  -14.2183   -2.1073   19.1433 H   0  0  0  0  0
  -12.5511   -2.7243   19.3437 H   0  0  0  0  0
  -13.4072    0.7677   18.1892 H   0  0  0  0  0
  -13.3477    1.5559   19.7884 H   0  0  0  0  0
  -14.6954    0.4448   19.3905 H   0  0  0  0  0
   -9.2685   -4.3602   16.1980 H   0  0  0  0  0
   -9.8299   -2.6679   16.1789 H   0  0  0  0  0
  -10.5107   -2.7168   18.3116 H   0  0  0  0  0
  -10.8587   -4.4015   17.8560 H   0  0  0  0  0
  -14.2390    2.9960   24.6317 H   0  0  0  0  0
  -11.7086    5.6444   26.2657 H   0  0  0  0  0
  -13.2815    4.9474   26.7919 H   0  0  0  0  0
  -13.1596    5.8090   25.2148 H   0  0  0  0  0
  1  2  1  0  0  0
  1  3  2  0  0  0
  1 28  1  0  0  0
  2  4  1  0  0  0
  2 44  1  0  0  0
  2 45  1  0  0  0
  4  5  1  0  0  0
  4 24  1  0  0  0
  4 46  1  0  0  0
  5  6  1  0  0  0
  5 47  1  0  0  0
  5 48  1  0  0  0
  6  7  1  0  0  0
  6 11  1  0  0  0
  7  8  1  0  0  0
  7 49  1  0  0  0
  8  9  1  0  0  0
  8 50  1  0  0  0
  9 10  1  0  0  0
  9 34  1  0  0  0
 10 11  1  0  0  0
 10 51  1  0  0  0
 11 52  1  0  0  0
 12 13  1  0  0  0
 12 24  1  0  0  0
 12 53  1  0  0  0
 13 14  1  0  0  0
 13 19  1  0  0  0
 13 54  1  0  0  0
 14 15  1  0  0  0
 14 55  1  0  0  0
 14 56  1  0  0  0
 15 16  1  0  0  0
 15 37  1  0  0  0
 15 57  1  0  0  0
 16 17  1  0  0  0
 16 18  2  0  0  0
 17 36  1  0  0  0
 17 58  1  0  0  0
 19 20  1  0  0  0
 19 59  1  0  0  0
 19 60  1  0  0  0
 20 21  1  0  0  0
 20 61  1  0  0  0
 20 62  1  0  0  0
 21 22  1  0  0  0
 21 23  2  0  0  0
 22 26  1  0  0  0
 24 25  2  0  0  0
 26 27  1  0  0  0
 26 63  1  0  0  0
 26 64  1  0  0  0
 27 65  1  0  0  0
 27 66  1  0  0  0
 27 67  1  0  0  0
 28 29  1  0  0  0
 28 32  1  0  0  0
 28 68  1  0  0  0
 29 30  1  0  0  0
 29 69  1  0  0  0
 30 31  2  0  0  0
 30 38  1  0  0  0
 32 33  1  0  0  0
 32 35  1  0  0  0
 32 70  1  0  0  0
 33 71  1  0  0  0
 33 72  1  0  0  0
 33 73  1  0  0  0
 35 74  1  0  0  0
 35 75  1  0  0  0
 35 76  1  0  0  0
 36 37  1  0  0  0
 36 77  1  0  0  0
 36 78  1  0  0  0
 37 79  1  0  0  0
 37 80  1  0  0  0
 38 39  1  0  0  0
 38 42  2  0  0  0
 39 40  2  0  0  0
 39 81  1  0  0  0
 40 41  1  0  0  0
 40 43  1  0  0  0
 41 42  1  0  0  0
 43 82  1  0  0  0
 43 83  1  0  0  0
 43 84  1  0  0  0
M  END
$$$$
