NOA_1_A_201
  -ISIS-            3D

 24 25  0  0  0  0  0  0  0  0  1 V2000
  -43.4330  -32.0800    2.3400 C   0  0  0  0  0
  -42.9850  -31.5230    0.9900 C   0  0  0  0  0
  -44.3860  -29.7030    0.5480 C   0  0  0  0  0
  -45.4820  -30.5670    0.4940 C   0  0  0  0  0
  -46.7490  -30.0540    0.0900 C   0  0  0  0  0
  -46.8320  -28.7060   -0.0340 C   0  0  0  0  0
  -45.7570  -27.8710   -0.0070 C   0  0  0  0  0
  -45.8610  -26.5410   -0.3060 C   0  0  0  0  0
  -44.8210  -25.6700   -0.1810 C   0  0  0  0  0
  -43.5610  -26.1670    0.1190 C   0  0  0  0  0
  -43.4390  -27.5340    0.3920 C   0  0  0  0  0
  -44.5460  -28.3160    0.3410 C   0  0  0  0  0
  -43.7200  -33.2800    2.3190 O   0  0  0  0  0
  -43.4340  -31.4810    3.3540 O   0  0  0  0  0
  -43.1360  -30.1320    0.9100 O   0  0  0  0  0
  -43.4397  -32.0399    0.1201 H   0  0  0  0  0
  -41.8971  -31.7354    0.9018 H   0  0  0  0  0
  -45.4280  -31.6439    0.7143 H   0  0  0  0  0
  -47.6230  -30.7129   -0.0394 H   0  0  0  0  0
  -47.8290  -28.2772   -0.2390 H   0  0  0  0  0
  -46.8385  -26.1357   -0.6221 H   0  0  0  0  0
  -44.9644  -24.5910   -0.3602 H   0  0  0  0  0
  -42.6831  -25.5009    0.1604 H   0  0  0  0  0
  -42.4418  -27.9334    0.6392 H   0  0  0  0  0
  1  2  1  0  0  0
  1 13  2  0  0  0
  1 14  2  0  0  0
  2 15  1  0  0  0
  2 16  1  0  0  0
  2 17  1  0  0  0
  3  4  2  0  0  0
  3 12  1  0  0  0
  3 15  1  0  0  0
  4  5  1  0  0  0
  4 18  1  0  0  0
  5  6  2  0  0  0
  5 19  1  0  0  0
  6  7  1  0  0  0
  6 20  1  0  0  0
  7  8  2  0  0  0
  7 12  1  0  0  0
  8  9  1  0  0  0
  8 21  1  0  0  0
  9 10  2  0  0  0
  9 22  1  0  0  0
 10 11  1  0  0  0
 10 23  1  0  0  0
 11 12  2  0  0  0
 11 24  1  0  0  0
M  END
$$$$
