@<TRIPOS>MOLECULE
DMS_1_A_202
 10 9 0 0 0
SMALL
NO_CHARGES

@<TRIPOS>ATOM
      1 S          -1.3020    9.2710   -7.2540 S.o    202  DMS202      0.0000
      2 O          -0.0830    8.4820   -6.9710 O.2    202  DMS202      0.0000
      3 C1         -1.0690    9.7230   -8.9250 C.3    202  DMS202      0.0000
      4 C2         -0.8560   10.8110   -6.5640 C.3    202  DMS202      0.0000
      5 H          -1.7959   10.5104   -9.2091 H      202  DMS202      0.0000
      6 H          -1.2394    8.8386   -9.5717 H      202  DMS202      0.0000
      7 H          -0.0387   10.0968   -9.0980 H      202  DMS202      0.0000
      8 H          -1.5802   11.5906   -6.8780 H      202  DMS202      0.0000
      9 H           0.1634   11.1117   -6.8807 H      202  DMS202      0.0000
     10 H          -0.8778   10.7386   -5.4574 H      202  DMS202      0.0000
@<TRIPOS>BOND
     1     1     2    2
     2     1     3    1
     3     1     4    1
     4     3     5    1
     5     3     6    1
     6     3     7    1
     7     4     8    1
     8     4     9    1
     9     4    10    1

