APG_1_A_201
  -ISIS-            3D

 21 21  0  0  0  0  0  0  0  0  1 V2000
  -46.4310  -33.2490    0.3560 C   0  0  0  0  0
  -46.3840  -32.0820    1.1550 C   0  0  0  0  0
  -45.3080  -31.2640    1.1500 C   0  0  0  0  0
  -44.2470  -31.5510    0.3560 C   0  0  0  0  0
  -44.2750  -32.6750   -0.4640 C   0  0  0  0  0
  -45.3640  -33.5250   -0.4570 C   0  0  0  0  0
  -45.2570  -30.0300    2.0600 C   0  0  0  0  0
  -45.2430  -28.8800    1.3270 O   0  0  0  0  0
  -44.0560  -30.0960    2.9780 C   0  0  0  0  0
  -46.4070  -29.8110    3.0200 C   0  0  0  0  0
  -43.4160  -29.0720    3.2890 O   0  0  0  0  0
  -43.6480  -31.1450    3.4700 O   0  0  0  0  0
  -47.3107  -33.9140    0.3833 H   0  0  0  0  0
  -47.2600  -31.8724    1.7897 H   0  0  0  0  0
  -43.3568  -30.8991    0.3410 H   0  0  0  0  0
  -43.4149  -32.8936   -1.1201 H   0  0  0  0  0
  -45.3731  -34.4202   -1.1019 H   0  0  0  0  0
  -44.6737  -28.2361    1.7381 H   0  0  0  0  0
  -46.2703  -28.9052    3.6521 H   0  0  0  0  0
  -46.5375  -30.6656    3.7201 H   0  0  0  0  0
  -47.3748  -29.6753    2.4883 H   0  0  0  0  0
  1  2  2  0  0  0
  1  6  1  0  0  0
  1 13  1  0  0  0
  2  3  1  0  0  0
  2 14  1  0  0  0
  3  4  2  0  0  0
  3  7  1  0  0  0
  4  5  1  0  0  0
  4 15  1  0  0  0
  5  6  2  0  0  0
  5 16  1  0  0  0
  6 17  1  0  0  0
  7  8  1  0  0  0
  7  9  1  0  0  0
  7 10  1  0  0  0
  8 18  1  0  0  0
  9 11  2  0  0  0
  9 12  2  0  0  0
 10 19  1  0  0  0
 10 20  1  0  0  0
 10 21  1  0  0  0
M  END
$$$$
