@<TRIPOS>MOLECULE
EDO_1_A_406
 10 9 0 0 0
SMALL
NO_CHARGES

@<TRIPOS>ATOM
      1 C1         -8.3630    0.5110    0.7990 C.3    406  EDO406      0.0000
      2 O1         -8.3160    1.1400   -0.4920 O.3    406  EDO406      0.0000
      3 C2         -8.9090   -0.8990    0.6330 C.3    406  EDO406      0.0000
      4 O2         -9.6100   -1.2790    1.8310 O.3    406  EDO406      0.0000
      5 H          -9.0312    1.1158    1.4465 H      406  EDO406      0.0000
      6 H          -7.3601    0.5090    1.2744 H      406  EDO406      0.0000
      7 H          -7.5073    0.8876   -0.9178 H      406  EDO406      0.0000
      8 H          -8.0870   -1.6192    0.4428 H      406  EDO406      0.0000
      9 H          -9.6054   -0.9615   -0.2301 H      406  EDO406      0.0000
     10 H         -10.4778   -0.8978    1.8025 H      406  EDO406      0.0000
@<TRIPOS>BOND
     1     1     2    1
     2     1     3    1
     3     1     5    1
     4     1     6    1
     5     2     7    1
     6     3     4    1
     7     3     8    1
     8     3     9    1
     9     4    10    1

