@<TRIPOS>MOLECULE
EDO_1_A_402
 10 9 0 0 0
SMALL
NO_CHARGES

@<TRIPOS>ATOM
      1 C1         -2.4420   19.4170   24.7310 C.3    402  EDO402      0.0000
      2 O1         -3.8270   19.6490   25.0030 O.3    402  EDO402      0.0000
      3 C2         -1.6790   19.3740   26.0490 C.3    402  EDO402      0.0000
      4 O2         -2.1800   20.3960   26.9160 O.3    402  EDO402      0.0000
      5 H          -2.0591   20.2373   24.0878 H      402  EDO402      0.0000
      6 H          -2.3246   18.4697   24.1664 H      402  EDO402      0.0000
      7 H          -3.8660   20.3158   25.6791 H      402  EDO402      0.0000
      8 H          -0.5912   19.5148   25.8779 H      402  EDO402      0.0000
      9 H          -1.8173   18.3846   26.5350 H      402  EDO402      0.0000
     10 H          -1.7092   20.3444   27.7370 H      402  EDO402      0.0000
@<TRIPOS>BOND
     1     1     2    1
     2     1     3    1
     3     1     5    1
     4     1     6    1
     5     2     7    1
     6     3     4    1
     7     3     8    1
     8     3     9    1
     9     4    10    1

