EDO_2_A_403
  -ISIS-            3D

 10  9  0  0  0  0  0  0  0  0  1 V2000
   10.1420   14.1450  -18.7270 C   0  0  0  0  0
   10.4000   13.8550  -20.1060 O   0  0  0  0  0
    9.1820   15.3210  -18.6860 C   0  0  0  0  0
    9.7800   16.4080  -19.3980 O   0  0  0  0  0
   11.0921   14.3898  -18.2069 H   0  0  0  0  0
    9.6966   13.2580  -18.2296 H   0  0  0  0  0
   10.9938   13.1173  -20.1461 H   0  0  0  0  0
    8.9833   15.6333  -17.6405 H   0  0  0  0  0
    8.2071   15.0605  -19.1493 H   0  0  0  0  0
   10.0767   16.0509  -20.2276 H   0  0  0  0  0
  1  2  1  0  0  0
  1  3  1  0  0  0
  1  5  1  0  0  0
  1  6  1  0  0  0
  2  7  1  0  0  0
  3  4  1  0  0  0
  3  8  1  0  0  0
  3  9  1  0  0  0
  4 10  1  0  0  0
M  END
$$$$
