EDO_1_A_402
  -ISIS-            3D

 10  9  0  0  0  0  0  0  0  0  1 V2000
   -2.4420   19.4170   24.7310 C   0  0  0  0  0
   -3.8270   19.6490   25.0030 O   0  0  0  0  0
   -1.6790   19.3740   26.0490 C   0  0  0  0  0
   -2.1800   20.3960   26.9160 O   0  0  0  0  0
   -2.0591   20.2373   24.0878 H   0  0  0  0  0
   -2.3246   18.4697   24.1664 H   0  0  0  0  0
   -3.8660   20.3158   25.6791 H   0  0  0  0  0
   -0.5912   19.5148   25.8779 H   0  0  0  0  0
   -1.8173   18.3846   26.5350 H   0  0  0  0  0
   -1.7092   20.3444   27.7370 H   0  0  0  0  0
  1  2  1  0  0  0
  1  3  1  0  0  0
  1  5  1  0  0  0
  1  6  1  0  0  0
  2  7  1  0  0  0
  3  4  1  0  0  0
  3  8  1  0  0  0
  3  9  1  0  0  0
  4 10  1  0  0  0
M  END
$$$$
