@<TRIPOS>MOLECULE
EDO_1_A_405
 10 9 0 0 0
SMALL
NO_CHARGES

@<TRIPOS>ATOM
      1 C1        -13.1280   10.9130   17.9020 C.3    405  EDO405      0.0000
      2 O1        -12.3470   12.0180   17.4520 O.3    405  EDO405      0.0000
      3 C2        -14.4660   10.8970   17.1710 C.3    405  EDO405      0.0000
      4 O2        -14.7200    9.6120   16.5770 O.3    405  EDO405      0.0000
      5 H         -13.2831   10.9856   18.9990 H      405  EDO405      0.0000
      6 H         -12.5706    9.9718   17.7104 H      405  EDO405      0.0000
      7 H         -11.4946   11.9663   17.8638 H      405  EDO405      0.0000
      8 H         -14.4782   11.6684   16.3719 H      405  EDO405      0.0000
      9 H         -15.2897   11.1481   17.8722 H      405  EDO405      0.0000
     10 H         -15.5196    9.6735   16.0713 H      405  EDO405      0.0000
@<TRIPOS>BOND
     1     1     2    1
     2     1     3    1
     3     1     5    1
     4     1     6    1
     5     2     7    1
     6     3     4    1
     7     3     8    1
     8     3     9    1
     9     4    10    1

