EDO_1_A_407
  -ISIS-            3D

 10  9  0  0  0  0  0  0  0  0  1 V2000
   14.1120    3.0540    6.4750 C   0  0  0  0  0
   14.2100    2.4250    5.1880 O   0  0  0  0  0
   14.4020    2.0160    7.5500 C   0  0  0  0  0
   15.0120    2.6550    8.6800 O   0  0  0  0  0
   13.1039    3.4977    6.6123 H   0  0  0  0  0
   14.8534    3.8797    6.5253 H   0  0  0  0  0
   14.0670    3.0876    4.5252 H   0  0  0  0  0
   15.1001    1.2444    7.1607 H   0  0  0  0  0
   13.4705    1.4971    7.8589 H   0  0  0  0  0
   15.2211    1.9866    9.3190 H   0  0  0  0  0
  1  2  1  0  0  0
  1  3  1  0  0  0
  1  5  1  0  0  0
  1  6  1  0  0  0
  2  7  1  0  0  0
  3  4  1  0  0  0
  3  8  1  0  0  0
  3  9  1  0  0  0
  4 10  1  0  0  0
M  END
$$$$
