@<TRIPOS>MOLECULE
BME_1_A_402
 9 8 0 0 0
SMALL
NO_CHARGES

@<TRIPOS>ATOM
      1 C1        -76.8270  -10.3400  108.0840 C.3    402  BME402      0.0000
      2 C2        -76.6670  -10.5990  106.5870 C.3    402  BME402      0.0000
      3 O1        -78.0980   -9.7620  108.4860 O.3    402  BME402      0.0000
      4 S2        -75.1120   -9.7810  106.0890 S.3    402  BME402      0.0000
      5 H         -76.0166   -9.6953  108.4874 H      402  BME402      0.0000
      6 H         -76.7166  -11.3055  108.6243 H      402  BME402      0.0000
      7 H         -77.5255  -10.1759  106.0219 H      402  BME402      0.0000
      8 H         -76.6296  -11.6892  106.3729 H      402  BME402      0.0000
      9 H         -78.0818   -8.8390  108.2685 H      402  BME402      0.0000
@<TRIPOS>BOND
     1     1     2    1
     2     1     3    1
     3     1     5    1
     4     1     6    1
     5     2     4    1
     6     2     7    1
     7     2     8    1
     8     3     9    1

