BME_1_A_402
  -ISIS-            3D

  9  8  0  0  0  0  0  0  0  0  1 V2000
  -76.8270  -10.3400  108.0840 C   0  0  0  0  0
  -76.6670  -10.5990  106.5870 C   0  0  0  0  0
  -78.0980   -9.7620  108.4860 O   0  0  0  0  0
  -75.1120   -9.7810  106.0890 S   0  0  0  0  0
  -76.0166   -9.6953  108.4874 H   0  0  0  0  0
  -76.7166  -11.3055  108.6243 H   0  0  0  0  0
  -77.5255  -10.1759  106.0219 H   0  0  0  0  0
  -76.6296  -11.6892  106.3729 H   0  0  0  0  0
  -78.0818   -8.8390  108.2685 H   0  0  0  0  0
  1  2  1  0  0  0
  1  3  1  0  0  0
  1  5  1  0  0  0
  1  6  1  0  0  0
  2  4  1  0  0  0
  2  7  1  0  0  0
  2  8  1  0  0  0
  3  9  1  0  0  0
M  END
$$$$
