MGP_1_A_7104
  -ISIS-            3D

 50 52  0  0  0  0  0  0  0  0  1 V2000
   70.9970  -40.9160   19.9160 P   0  0  0  0  0
   71.2540  -41.7550   21.1240 O   0  0  0  0  0
   71.9980  -39.8560   19.5880 O   0  0  0  0  0
   70.8280  -41.8810   18.6430 O   0  0  0  0  0
   69.5330  -40.2510   20.0220 O   0  0  0  0  0
   71.0670  -43.4530   18.4500 P   0  0  0  0  0
   69.7920  -44.1590   18.7610 O   0  0  0  0  0
   72.3160  -43.8430   19.1760 O   0  0  0  0  0
   71.3220  -43.5180   16.8660 O   0  0  0  0  0
   72.2810  -44.3790   15.8730 P   0  0  0  0  0
   73.6790  -43.8430   16.0780 O   0  0  0  0  0
   71.7690  -44.1390   14.4710 O   0  0  0  0  0
   72.1420  -45.8220   16.2980 O   0  0  0  0  0
   68.3310  -40.9890   19.6640 C   0  0  0  0  0
   67.4030  -40.0990   18.8710 C   0  0  0  0  0
   67.5600  -38.7210   19.3050 O   0  0  0  0  0
   67.6530  -40.0110   17.3570 C   0  0  0  0  0
   67.2050  -41.1470   16.6280 O   0  0  0  0  0
   66.8980  -38.7330   17.0500 C   0  0  0  0  0
   65.4990  -38.8390   17.1890 O   0  0  0  0  0
   67.3730  -37.8540   18.1930 C   0  0  0  0  0
   68.6040  -37.1050   17.8550 N   0  0  0  0  0
   69.8400  -37.3370   18.2970 C   0  0  0  0  0
   70.7100  -36.8060   17.4430 N   0  0  0  0  0
   72.1340  -37.1430   17.3620 C   0  0  0  0  0
   70.0160  -35.8710   16.6750 C   0  0  0  0  0
   70.4410  -34.8800   15.7910 C   0  0  0  0  0
   71.5860  -34.5980   15.4530 O   0  0  0  0  0
   69.3620  -34.1770   15.2860 N   0  0  0  0  0
   68.0440  -34.4000   15.5890 C   0  0  0  0  0
   67.1390  -33.6150   14.9930 N   0  0  0  0  0
   67.6550  -35.3440   16.4260 N   0  0  0  0  0
   68.6800  -36.0510   16.9550 C   0  0  0  0  0
   67.8345  -41.3014   20.6068 H   0  0  0  0  0
   68.5397  -41.9153   19.0991 H   0  0  0  0  0
   66.3586  -40.4309   19.0540 H   0  0  0  0  0
   68.7374  -39.8684   17.1629 H   0  0  0  0  0
   66.3008  -40.9843   16.3872 H   0  0  0  0  0
   67.1525  -38.3228   16.0528 H   0  0  0  0  0
   65.2421  -38.7864   18.1003 H   0  0  0  0  0
   66.6171  -37.0817   18.4533 H   0  0  0  0  0
   70.1826  -38.0774   19.0265 H   0  0  0  0  0
   72.5826  -36.8399   16.3918 H   0  0  0  0  0
   72.2982  -38.2378   17.4621 H   0  0  0  0  0
   72.7077  -36.6385   18.1703 H   0  0  0  0  0
   66.1650  -33.8179   15.2475 H   0  0  0  0  0
   67.4456  -32.8827   14.3413 H   0  0  0  0  0
   69.5212  -33.4119   14.6209 H   0  0  0  0  0
   71.3157  -41.1035   22.0469 H   0  0  0  0  0
   72.7902  -46.4867   15.6513 H   0  0  0  0  0
  1  2  1  0  0  0
  1  3  2  0  0  0
  1  4  1  0  0  0
  1  5  1  0  0  0
  4  6  1  0  0  0
  5 14  1  0  0  0
  6  7  2  0  0  0
  6  8  2  0  0  0
  6  9  1  0  0  0
  9 10  1  0  0  0
 10 11  2  0  0  0
 10 12  2  0  0  0
 10 13  1  0  0  0
 14 15  1  0  0  0
 14 34  1  0  0  0
 14 35  1  0  0  0
 15 16  1  0  0  0
 15 17  1  0  0  0
 15 36  1  0  0  0
 16 21  1  0  0  0
 17 18  1  0  0  0
 17 19  1  0  0  0
 17 37  1  0  0  0
 18 38  1  0  0  0
 19 20  1  0  0  0
 19 21  1  0  0  0
 19 39  1  0  0  0
 20 40  1  0  0  0
 21 22  1  0  0  0
 21 41  1  0  0  0
 22 23  1  0  0  0
 22 33  1  0  0  0
 23 24  2  0  0  0
 23 42  1  0  0  0
 24 25  1  0  0  0
 24 26  1  0  0  0
 25 43  1  0  0  0
 25 44  1  0  0  0
 25 45  1  0  0  0
 26 27  1  0  0  0
 26 33  2  0  0  0
 27 28  2  0  0  0
 27 29  1  0  0  0
 29 30  1  0  0  0
 29 48  1  0  0  0
 30 31  1  0  0  0
 30 32  2  0  0  0
 31 46  1  0  0  0
 31 47  1  0  0  0
 32 33  1  0  0  0
  2 49  1  0  0  0
 13 50  1  0  0  0
M  END
$$$$
