@<TRIPOS>MOLECULE
GTA_1_A_301
 79 84 0 0 0
SMALL
NO_CHARGES

@<TRIPOS>ATOM
      1 N2         87.1180  -31.5120   44.8780 N.pl3  301  GTA301      0.0000
      2 O6         84.7220  -32.4970   41.1150 O.2    301  GTA301      0.0000
      3 C6         85.0950  -31.6220   41.8870 C.ar   301  GTA301      0.0000
      4 C5         84.8180  -30.2590   41.8420 C.ar   301  GTA301      0.0000
      5 N7         84.0710  -29.4860   40.9510 N.ar   301  GTA301      0.0000
      6 C7         83.3610  -29.9680   39.7690 C.3    301  GTA301      0.0000
      7 C8         84.1200  -28.2180   41.3570 C.ar   301  GTA301      0.0000
      8 N9         84.8490  -28.1180   42.4460 N.ar   301  GTA301      0.0000
      9 C4         85.3120  -29.3980   42.7860 C.ar   301  GTA301      0.0000
     10 N3         86.0850  -29.7290   43.8370 N.ar   301  GTA301      0.0000
     11 C2         86.3560  -31.0250   43.8930 C.ar   301  GTA301      0.0000
     12 N1         85.8900  -31.9240   42.9700 N.ar   301  GTA301      0.0000
     13 O3A        87.1870  -24.4050   41.4500 O.3    301  GTA301      0.0000
     14 C1A        85.1320  -26.8660   43.1790 C.3    301  GTA301      0.0000
     15 C2A        86.5070  -26.3220   42.8210 C.3    301  GTA301      0.0000
     16 C3A        86.1760  -25.3760   41.6870 C.3    301  GTA301      0.0000
     17 C4A        84.8560  -24.7590   42.1760 C.3    301  GTA301      0.0000
     18 C5A        83.9370  -24.1920   41.1170 C.3    301  GTA301      0.0000
     19 O4A        84.1890  -25.8570   42.8550 O.3    301  GTA301      0.0000
     20 O2A        87.0280  -25.6380   43.9420 O.3    301  GTA301      0.0000
     21 P1         83.3750  -24.8130   38.5850 P.3    301  GTA301      0.0000
     22 O11        81.9420  -24.4520   38.3710 O.co2  301  GTA301      0.0000
     23 O12        84.4050  -23.8180   38.1640 O.co2  301  GTA301      0.0000
     24 O13        83.6790  -26.1920   37.8250 O.3    301  GTA301      0.0000
     25 O15        83.6040  -25.2170   40.1280 O.3    301  GTA301      0.0000
     26 P2         85.0360  -26.9890   37.5310 P.3    301  GTA301      0.0000
     27 O22        84.7020  -28.3310   36.9630 O.co2  301  GTA301      0.0000
     28 O21        85.8860  -26.8930   38.7530 O.co2  301  GTA301      0.0000
     29 O23        85.7120  -26.1330   36.3590 O.3    301  GTA301      0.0000
     30 P3         87.2210  -26.1230   35.8030 P.3    301  GTA301      0.0000
     31 O32        87.5490  -27.4710   35.2520 O.co2  301  GTA301      0.0000
     32 O31        88.1200  -25.5530   36.8490 O.co2  301  GTA301      0.0000
     33 O33        87.1150  -25.0750   34.6050 O.3    301  GTA301      0.0000
     34 C5B        86.0590  -25.2180   33.6360 C.3    301  GTA301      0.0000
     35 C4B        86.3800  -24.3510   32.4460 C.3    301  GTA301      0.0000
     36 O4B        85.9960  -22.9810   32.7350 O.3    301  GTA301      0.0000
     37 C3B        87.8610  -24.2680   32.0520 C.3    301  GTA301      0.0000
     38 O3B        88.2630  -25.3370   31.2030 O.3    301  GTA301      0.0000
     39 C2B        87.8930  -22.9250   31.3250 C.3    301  GTA301      0.0000
     40 O2B        87.4240  -23.0360   29.9980 O.3    301  GTA301      0.0000
     41 C1B        86.9670  -22.0970   32.2170 C.3    301  GTA301      0.0000
     42 N9C        87.6660  -21.4590   33.3380 N.ar   301  GTA301      0.0000
     43 C8C        88.0280  -22.0230   34.5400 C.ar   301  GTA301      0.0000
     44 N7C        88.6520  -21.1770   35.3280 N.ar   301  GTA301      0.0000
     45 C5C        88.7040  -19.9930   34.6010 C.ar   301  GTA301      0.0000
     46 C6C        89.2400  -18.7220   34.8870 C.ar   301  GTA301      0.0000
     47 N6C        89.8500  -18.4180   36.0290 N.pl3  301  GTA301      0.0000
     48 N1C        89.1200  -17.7650   33.9330 N.ar   301  GTA301      0.0000
     49 C2C        88.5060  -18.0790   32.7840 C.ar   301  GTA301      0.0000
     50 N3C        87.9660  -19.2360   32.4070 N.ar   301  GTA301      0.0000
     51 C4C        88.1020  -20.1610   33.3730 C.ar   301  GTA301      0.0000
     52 H          82.8484  -29.1219   39.2612 H      301  GTA301      0.0000
     53 H          82.6027  -30.7208   40.0771 H      301  GTA301      0.0000
     54 H          84.0879  -30.4324   39.0670 H      301  GTA301      0.0000
     55 H          83.6373  -27.3496   40.9011 H      301  GTA301      0.0000
     56 H          87.6480  -24.6401   40.6554 H      301  GTA301      0.0000
     57 H          85.0700  -27.0915   44.2652 H      301  GTA301      0.0000
     58 H          87.2102  -27.1190   42.5037 H      301  GTA301      0.0000
     59 H          85.9881  -25.9637   40.7700 H      301  GTA301      0.0000
     60 H          85.0793  -23.9669   42.9234 H      301  GTA301      0.0000
     61 H          84.4305  -23.3233   40.6346 H      301  GTA301      0.0000
     62 H          82.9986  -23.8185   41.5772 H      301  GTA301      0.0000
     63 H          87.6356  -24.9879   43.6087 H      301  GTA301      0.0000
     64 H          85.0802  -24.9384   34.0781 H      301  GTA301      0.0000
     65 H          85.9914  -26.2769   33.3071 H      301  GTA301      0.0000
     66 H          85.7813  -24.6990   31.5763 H      301  GTA301      0.0000
     67 H          88.5272  -24.2315   32.9360 H      301  GTA301      0.0000
     68 H          88.2214  -25.0189   30.3082 H      301  GTA301      0.0000
     69 H          88.9194  -22.5037   31.3114 H      301  GTA301      0.0000
     70 H          86.4790  -22.9577   29.9862 H      301  GTA301      0.0000
     71 H          86.4696  -21.2910   31.6380 H      301  GTA301      0.0000
     72 H          87.8704  -23.0325   34.9237 H      301  GTA301      0.0000
     73 H          88.4381  -17.2613   32.0459 H      301  GTA301      0.0000
     74 H          87.3269  -32.5169   44.9163 H      301  GTA301      0.0000
     75 H          87.4478  -30.8073   45.5483 H      301  GTA301      0.0000
     76 H          90.1933  -17.4523   36.1021 H      301  GTA301      0.0000
     77 H          89.9279  -19.1608   36.7353 H      301  GTA301      0.0000
     78 H          86.1787  -32.8948   43.1348 H      301  GTA301      0.0000
     79 H          81.7545  -24.2270   37.2782 H      301  GTA301      0.0000
@<TRIPOS>BOND
     1     1    11    1
     2     1    74    1
     3     1    75    1
     4     2     3    2
     5     3     4   ar
     6     3    12   ar
     7     4     5   ar
     8     4     9   ar
     9     5     6    1
    10     5     7   ar
    11     6    52    1
    12     6    53    1
    13     6    54    1
    14     7     8   ar
    15     7    55    1
    16     8     9   ar
    17     8    14    1
    18     9    10   ar
    19    10    11   ar
    20    11    12   ar
    21    12    78    1
    22    13    16    1
    23    13    56    1
    24    14    15    1
    25    14    19    1
    26    14    57    1
    27    15    16    1
    28    15    20    1
    29    15    58    1
    30    16    17    1
    31    16    59    1
    32    17    18    1
    33    17    19    1
    34    17    60    1
    35    18    25    1
    36    18    61    1
    37    18    62    1
    38    20    63    1
    39    21    22    1
    40    21    23    2
    41    21    24    1
    42    21    25    1
    43    24    26    1
    44    26    27    2
    45    26    28    2
    46    26    29    1
    47    29    30    1
    48    30    31    2
    49    30    32    2
    50    30    33    1
    51    33    34    1
    52    34    35    1
    53    34    64    1
    54    34    65    1
    55    35    36    1
    56    35    37    1
    57    35    66    1
    58    36    41    1
    59    37    38    1
    60    37    39    1
    61    37    67    1
    62    38    68    1
    63    39    40    1
    64    39    41    1
    65    39    69    1
    66    40    70    1
    67    41    42    1
    68    41    71    1
    69    42    43   ar
    70    42    51   ar
    71    43    44   ar
    72    43    72    1
    73    44    45   ar
    74    45    46   ar
    75    45    51   ar
    76    46    47    1
    77    46    48   ar
    78    47    76    1
    79    47    77    1
    80    48    49   ar
    81    49    50   ar
    82    49    73    1
    83    50    51   ar
    84    22    79    1

