GTA_1_A_303
  -ISIS-            3D

 79 84  0  0  0  0  0  0  0  0  1 V2000
   66.9570  -33.6710   14.7840 N   0  0  0  0  0
   71.3840  -34.5110   15.5880 O   0  0  0  0  0
   70.2260  -34.8210   15.8340 C   0  0  0  0  0
   69.7680  -35.8200   16.6840 C   0  0  0  0  0
   70.4350  -36.7350   17.4970 N   0  0  0  0  0
   71.8830  -36.8670   17.6500 C   0  0  0  0  0
   69.5210  -37.4690   18.1300 C   0  0  0  0  0
   68.3110  -37.0990   17.7720 N   0  0  0  0  0
   68.4290  -36.0470   16.8570 C   0  0  0  0  0
   67.4220  -35.3750   16.2650 N   0  0  0  0  0
   67.8410  -34.4230   15.4490 C   0  0  0  0  0
   69.1700  -34.1580   15.2440 N   0  0  0  0  0
   65.7170  -40.5280   16.4340 O   0  0  0  0  0
   67.0330  -37.6680   18.2660 C   0  0  0  0  0
   66.1690  -38.2220   17.1430 C   0  0  0  0  0
   66.6330  -39.6580   17.0860 C   0  0  0  0  0
   66.7780  -39.9780   18.5810 C   0  0  0  0  0
   67.7370  -41.0890   18.9300 C   0  0  0  0  0
   67.2570  -38.7360   19.1650 O   0  0  0  0  0
   64.8170  -38.1280   17.5470 O   0  0  0  0  0
   70.1930  -40.8890   19.8960 P   0  0  0  0  0
   71.4250  -40.0980   19.6080 O   0  0  0  0  0
   69.5620  -40.7240   21.2390 O   0  0  0  0  0
   70.4940  -42.4430   19.6380 O   0  0  0  0  0
   69.1010  -40.6190   18.7510 O   0  0  0  0  0
   71.7680  -43.3730   19.9060 P   0  0  0  0  0
   72.4080  -42.9490   21.1900 O   0  0  0  0  0
   71.3500  -44.7950   19.7250 O   0  0  0  0  0
   72.7070  -42.9560   18.6730 O   0  0  0  0  0
   73.9030  -41.9020   18.4620 P   0  0  0  0  0
   75.0580  -42.6020   17.8230 O   0  0  0  0  0
   74.1460  -41.1840   19.7490 O   0  0  0  0  0
   73.2380  -40.8890   17.4080 O   0  0  0  0  0
   73.8030  -40.7550   16.0760 C   0  0  0  0  0
   73.4430  -41.9670   15.2530 C   0  0  0  0  0
   72.1000  -42.3930   15.5910 O   0  0  0  0  0
   73.4480  -41.7730   13.7260 C   0  0  0  0  0
   74.3960  -42.6380   13.1140 O   0  0  0  0  0
   72.0170  -42.1140   13.2880 C   0  0  0  0  0
   71.9770  -42.8380   12.0770 O   0  0  0  0  0
   71.5230  -42.9690   14.4490 C   0  0  0  0  0
   70.0680  -43.0070   14.6240 N   0  0  0  0  0
   69.0990  -42.4980   13.7850 C   0  0  0  0  0
   67.8830  -42.7130   14.2330 N   0  0  0  0  0
   68.0620  -43.4060   15.4250 C   0  0  0  0  0
   67.1570  -43.9230   16.3730 C   0  0  0  0  0
   65.8340  -43.8250   16.2660 N   0  0  0  0  0
   67.6790  -44.5630   17.4480 N   0  0  0  0  0
   69.0120  -44.6630   17.5510 C   0  0  0  0  0
   69.9560  -44.2170   16.7260 N   0  0  0  0  0
   69.4060  -43.5910   15.6710 C   0  0  0  0  0
   72.1159  -37.5724   18.4772 H   0  0  0  0  0
   72.3231  -35.8736   17.8863 H   0  0  0  0  0
   72.3175  -37.2560   16.7029 H   0  0  0  0  0
   69.6845  -38.2631   18.8625 H   0  0  0  0  0
   64.8458  -40.2024   16.6298 H   0  0  0  0  0
   66.5075  -36.8452   18.7975 H   0  0  0  0  0
   66.3223  -37.7139   16.1698 H   0  0  0  0  0
   67.6220  -39.7199   16.5848 H   0  0  0  0  0
   65.7770  -40.2110   19.0044 H   0  0  0  0  0
   67.5650  -41.9692   18.2811 H   0  0  0  0  0
   67.5588  -41.4217   19.9731 H   0  0  0  0  0
   64.4874  -37.2722   17.3072 H   0  0  0  0  0
   74.8982  -40.5844   16.1157 H   0  0  0  0  0
   73.3577  -39.8465   15.6201 H   0  0  0  0  0
   74.1364  -42.7978   15.5036 H   0  0  0  0  0
   73.6751  -40.7202   13.4542 H   0  0  0  0  0
   75.2623  -42.2707   13.2250 H   0  0  0  0  0
   71.4234  -41.1803   13.2053 H   0  0  0  0  0
   72.8254  -43.2481   11.9554 H   0  0  0  0  0
   71.8746  -44.0178   14.3400 H   0  0  0  0  0
   69.2154  -41.9661   12.8322 H   0  0  0  0  0
   69.3671  -45.2075   18.4402 H   0  0  0  0  0
   67.2900  -32.9331   14.1520 H   0  0  0  0  0
   65.9728  -33.9004   14.9659 H   0  0  0  0  0
   65.2908  -44.3162   16.9868 H   0  0  0  0  0
   65.4743  -43.2612   15.4845 H   0  0  0  0  0
   69.3557  -33.3915   14.5876 H   0  0  0  0  0
   72.2738  -40.4267   20.2839 H   0  0  0  0  0
  1 11  1  0  0  0
  1 74  1  0  0  0
  1 75  1  0  0  0
  2  3  2  0  0  0
  3  4  1  0  0  0
  3 12  1  0  0  0
  4  5  1  0  0  0
  4  9  2  0  0  0
  5  6  1  0  0  0
  5  7  1  0  0  0
  6 52  1  0  0  0
  6 53  1  0  0  0
  6 54  1  0  0  0
  7  8  1  0  0  0
  7 55  1  0  0  0
  8  9  1  0  0  0
  8 14  1  0  0  0
  9 10  1  0  0  0
 10 11  2  0  0  0
 11 12  1  0  0  0
 12 78  1  0  0  0
 13 16  1  0  0  0
 13 56  1  0  0  0
 14 15  1  0  0  0
 14 19  1  0  0  0
 14 57  1  0  0  0
 15 16  1  0  0  0
 15 20  1  0  0  0
 15 58  1  0  0  0
 16 17  1  0  0  0
 16 59  1  0  0  0
 17 18  1  0  0  0
 17 19  1  0  0  0
 17 60  1  0  0  0
 18 25  1  0  0  0
 18 61  1  0  0  0
 18 62  1  0  0  0
 20 63  1  0  0  0
 21 22  1  0  0  0
 21 23  2  0  0  0
 21 24  1  0  0  0
 21 25  1  0  0  0
 24 26  1  0  0  0
 26 27  2  0  0  0
 26 28  2  0  0  0
 26 29  1  0  0  0
 29 30  1  0  0  0
 30 31  2  0  0  0
 30 32  2  0  0  0
 30 33  1  0  0  0
 33 34  1  0  0  0
 34 35  1  0  0  0
 34 64  1  0  0  0
 34 65  1  0  0  0
 35 36  1  0  0  0
 35 37  1  0  0  0
 35 66  1  0  0  0
 36 41  1  0  0  0
 37 38  1  0  0  0
 37 39  1  0  0  0
 37 67  1  0  0  0
 38 68  1  0  0  0
 39 40  1  0  0  0
 39 41  1  0  0  0
 39 69  1  0  0  0
 40 70  1  0  0  0
 41 42  1  0  0  0
 41 71  1  0  0  0
 42 43  1  0  0  0
 42 51  1  0  0  0
 43 44  2  0  0  0
 43 72  1  0  0  0
 44 45  1  0  0  0
 45 46  2  0  0  0
 45 51  1  0  0  0
 46 47  1  0  0  0
 46 48  1  0  0  0
 47 76  1  0  0  0
 47 77  1  0  0  0
 48 49  2  0  0  0
 49 50  1  0  0  0
 49 73  1  0  0  0
 50 51  2  0  0  0
 22 79  1  0  0  0
M  END
$$$$
