@<TRIPOS>MOLECULE
GTA_1_A_303
 79 84 0 0 0
SMALL
NO_CHARGES

@<TRIPOS>ATOM
      1 N2         66.9570  -33.6710   14.7840 N.pl3  303  GTA303      0.0000
      2 O6         71.3840  -34.5110   15.5880 O.2    303  GTA303      0.0000
      3 C6         70.2260  -34.8210   15.8340 C.ar   303  GTA303      0.0000
      4 C5         69.7680  -35.8200   16.6840 C.ar   303  GTA303      0.0000
      5 N7         70.4350  -36.7350   17.4970 N.ar   303  GTA303      0.0000
      6 C7         71.8830  -36.8670   17.6500 C.3    303  GTA303      0.0000
      7 C8         69.5210  -37.4690   18.1300 C.ar   303  GTA303      0.0000
      8 N9         68.3110  -37.0990   17.7720 N.ar   303  GTA303      0.0000
      9 C4         68.4290  -36.0470   16.8570 C.ar   303  GTA303      0.0000
     10 N3         67.4220  -35.3750   16.2650 N.ar   303  GTA303      0.0000
     11 C2         67.8410  -34.4230   15.4490 C.ar   303  GTA303      0.0000
     12 N1         69.1700  -34.1580   15.2440 N.ar   303  GTA303      0.0000
     13 O3A        65.7170  -40.5280   16.4340 O.3    303  GTA303      0.0000
     14 C1A        67.0330  -37.6680   18.2660 C.3    303  GTA303      0.0000
     15 C2A        66.1690  -38.2220   17.1430 C.3    303  GTA303      0.0000
     16 C3A        66.6330  -39.6580   17.0860 C.3    303  GTA303      0.0000
     17 C4A        66.7780  -39.9780   18.5810 C.3    303  GTA303      0.0000
     18 C5A        67.7370  -41.0890   18.9300 C.3    303  GTA303      0.0000
     19 O4A        67.2570  -38.7360   19.1650 O.3    303  GTA303      0.0000
     20 O2A        64.8170  -38.1280   17.5470 O.3    303  GTA303      0.0000
     21 P1         70.1930  -40.8890   19.8960 P.3    303  GTA303      0.0000
     22 O11        71.4250  -40.0980   19.6080 O.co2  303  GTA303      0.0000
     23 O12        69.5620  -40.7240   21.2390 O.co2  303  GTA303      0.0000
     24 O13        70.4940  -42.4430   19.6380 O.3    303  GTA303      0.0000
     25 O15        69.1010  -40.6190   18.7510 O.3    303  GTA303      0.0000
     26 P2         71.7680  -43.3730   19.9060 P.3    303  GTA303      0.0000
     27 O22        72.4080  -42.9490   21.1900 O.co2  303  GTA303      0.0000
     28 O21        71.3500  -44.7950   19.7250 O.co2  303  GTA303      0.0000
     29 O23        72.7070  -42.9560   18.6730 O.3    303  GTA303      0.0000
     30 P3         73.9030  -41.9020   18.4620 P.3    303  GTA303      0.0000
     31 O32        75.0580  -42.6020   17.8230 O.co2  303  GTA303      0.0000
     32 O31        74.1460  -41.1840   19.7490 O.co2  303  GTA303      0.0000
     33 O33        73.2380  -40.8890   17.4080 O.3    303  GTA303      0.0000
     34 C5B        73.8030  -40.7550   16.0760 C.3    303  GTA303      0.0000
     35 C4B        73.4430  -41.9670   15.2530 C.3    303  GTA303      0.0000
     36 O4B        72.1000  -42.3930   15.5910 O.3    303  GTA303      0.0000
     37 C3B        73.4480  -41.7730   13.7260 C.3    303  GTA303      0.0000
     38 O3B        74.3960  -42.6380   13.1140 O.3    303  GTA303      0.0000
     39 C2B        72.0170  -42.1140   13.2880 C.3    303  GTA303      0.0000
     40 O2B        71.9770  -42.8380   12.0770 O.3    303  GTA303      0.0000
     41 C1B        71.5230  -42.9690   14.4490 C.3    303  GTA303      0.0000
     42 N9C        70.0680  -43.0070   14.6240 N.ar   303  GTA303      0.0000
     43 C8C        69.0990  -42.4980   13.7850 C.ar   303  GTA303      0.0000
     44 N7C        67.8830  -42.7130   14.2330 N.ar   303  GTA303      0.0000
     45 C5C        68.0620  -43.4060   15.4250 C.ar   303  GTA303      0.0000
     46 C6C        67.1570  -43.9230   16.3730 C.ar   303  GTA303      0.0000
     47 N6C        65.8340  -43.8250   16.2660 N.pl3  303  GTA303      0.0000
     48 N1C        67.6790  -44.5630   17.4480 N.ar   303  GTA303      0.0000
     49 C2C        69.0120  -44.6630   17.5510 C.ar   303  GTA303      0.0000
     50 N3C        69.9560  -44.2170   16.7260 N.ar   303  GTA303      0.0000
     51 C4C        69.4060  -43.5910   15.6710 C.ar   303  GTA303      0.0000
     52 H          72.1159  -37.5724   18.4772 H      303  GTA303      0.0000
     53 H          72.3231  -35.8736   17.8863 H      303  GTA303      0.0000
     54 H          72.3175  -37.2560   16.7029 H      303  GTA303      0.0000
     55 H          69.6845  -38.2631   18.8625 H      303  GTA303      0.0000
     56 H          64.8458  -40.2024   16.6298 H      303  GTA303      0.0000
     57 H          66.5075  -36.8452   18.7975 H      303  GTA303      0.0000
     58 H          66.3223  -37.7139   16.1698 H      303  GTA303      0.0000
     59 H          67.6220  -39.7199   16.5848 H      303  GTA303      0.0000
     60 H          65.7770  -40.2110   19.0044 H      303  GTA303      0.0000
     61 H          67.5650  -41.9692   18.2811 H      303  GTA303      0.0000
     62 H          67.5588  -41.4217   19.9731 H      303  GTA303      0.0000
     63 H          64.4874  -37.2722   17.3072 H      303  GTA303      0.0000
     64 H          74.8982  -40.5844   16.1157 H      303  GTA303      0.0000
     65 H          73.3577  -39.8465   15.6201 H      303  GTA303      0.0000
     66 H          74.1364  -42.7978   15.5036 H      303  GTA303      0.0000
     67 H          73.6751  -40.7202   13.4542 H      303  GTA303      0.0000
     68 H          75.2623  -42.2707   13.2250 H      303  GTA303      0.0000
     69 H          71.4234  -41.1803   13.2053 H      303  GTA303      0.0000
     70 H          72.8254  -43.2481   11.9554 H      303  GTA303      0.0000
     71 H          71.8746  -44.0178   14.3400 H      303  GTA303      0.0000
     72 H          69.2154  -41.9661   12.8322 H      303  GTA303      0.0000
     73 H          69.3671  -45.2075   18.4402 H      303  GTA303      0.0000
     74 H          67.2900  -32.9331   14.1520 H      303  GTA303      0.0000
     75 H          65.9728  -33.9004   14.9659 H      303  GTA303      0.0000
     76 H          65.2908  -44.3162   16.9868 H      303  GTA303      0.0000
     77 H          65.4743  -43.2612   15.4845 H      303  GTA303      0.0000
     78 H          69.3557  -33.3915   14.5876 H      303  GTA303      0.0000
     79 H          72.2738  -40.4267   20.2839 H      303  GTA303      0.0000
@<TRIPOS>BOND
     1     1    11    1
     2     1    74    1
     3     1    75    1
     4     2     3    2
     5     3     4   ar
     6     3    12   ar
     7     4     5   ar
     8     4     9   ar
     9     5     6    1
    10     5     7   ar
    11     6    52    1
    12     6    53    1
    13     6    54    1
    14     7     8   ar
    15     7    55    1
    16     8     9   ar
    17     8    14    1
    18     9    10   ar
    19    10    11   ar
    20    11    12   ar
    21    12    78    1
    22    13    16    1
    23    13    56    1
    24    14    15    1
    25    14    19    1
    26    14    57    1
    27    15    16    1
    28    15    20    1
    29    15    58    1
    30    16    17    1
    31    16    59    1
    32    17    18    1
    33    17    19    1
    34    17    60    1
    35    18    25    1
    36    18    61    1
    37    18    62    1
    38    20    63    1
    39    21    22    1
    40    21    23    2
    41    21    24    1
    42    21    25    1
    43    24    26    1
    44    26    27    2
    45    26    28    2
    46    26    29    1
    47    29    30    1
    48    30    31    2
    49    30    32    2
    50    30    33    1
    51    33    34    1
    52    34    35    1
    53    34    64    1
    54    34    65    1
    55    35    36    1
    56    35    37    1
    57    35    66    1
    58    36    41    1
    59    37    38    1
    60    37    39    1
    61    37    67    1
    62    38    68    1
    63    39    40    1
    64    39    41    1
    65    39    69    1
    66    40    70    1
    67    41    42    1
    68    41    71    1
    69    42    43   ar
    70    42    51   ar
    71    43    44   ar
    72    43    72    1
    73    44    45   ar
    74    45    46   ar
    75    45    51   ar
    76    46    47    1
    77    46    48   ar
    78    47    76    1
    79    47    77    1
    80    48    49   ar
    81    49    50   ar
    82    49    73    1
    83    50    51   ar
    84    22    79    1

