@<TRIPOS>MOLECULE
EDO_1_A_9002
 10 9 0 0 0
SMALL
NO_CHARGES

@<TRIPOS>ATOM
      1 C1         -3.8480    0.7790   13.4650 C.3   9002  EDO9002      0.0000
      2 O1         -3.1780    2.0450   13.5940 O.3   9002  EDO9002      0.0000
      3 C2         -4.5600    0.4900   14.8100 C.3   9002  EDO9002      0.0000
      4 O2         -5.5260    1.5090   15.0260 O.3   9002  EDO9002      0.0000
      5 H          -3.1120   -0.0164   13.2251 H     9002  EDO9002      0.0000
      6 H          -4.5780    0.8306   12.6316 H     9002  EDO9002      0.0000
      7 H          -2.5124    1.9722   14.2655 H     9002  EDO9002      0.0000
      8 H          -3.8333    0.4670   15.6489 H     9002  EDO9002      0.0000
      9 H          -5.0623   -0.4994   14.7691 H     9002  EDO9002      0.0000
     10 H          -5.9742    1.3331   15.8430 H     9002  EDO9002      0.0000
@<TRIPOS>BOND
     1     1     2    1
     2     1     3    1
     3     1     5    1
     4     1     6    1
     5     2     7    1
     6     3     4    1
     7     3     8    1
     8     3     9    1
     9     4    10    1

