@<TRIPOS>MOLECULE
TTT_1_A_317
 43 45 0 0 0
SMALL
NO_CHARGES

@<TRIPOS>ATOM
      1 C1        -29.9910   21.1070   29.9270 C.2    317  TTT317      0.0000
      2 C3        -28.5330   21.4130   29.8040 C.ar   317  TTT317      0.0000
      3 C8        -33.7440   21.9080   31.0440 C.ar   317  TTT317      0.0000
      4 C9        -33.7210   24.5430   29.8610 C.ar   317  TTT317      0.0000
      5 C10       -27.5970   20.2630   29.4840 C.ar   317  TTT317      0.0000
      6 C11       -34.4760   23.1010   31.6940 C.ar   317  TTT317      0.0000
      7 C12       -34.4300   24.3800   31.0660 C.ar   317  TTT317      0.0000
      8 C13       -28.0170   22.7250   29.9800 C.ar   317  TTT317      0.0000
      9 C14       -33.7870   20.6250   31.6670 C.ar   317  TTT317      0.0000
     10 C16       -28.1340   18.8500   29.2880 C.3    317  TTT317      0.0000
     11 C19       -26.6190   22.9310   29.8520 C.ar   317  TTT317      0.0000
     12 C20       -34.5130   20.4590   32.8940 C.ar   317  TTT317      0.0000
     13 C21       -25.7210   21.8600   29.5540 C.ar   317  TTT317      0.0000
     14 C22       -35.2050   21.5710   33.5120 C.ar   317  TTT317      0.0000
     15 O7        -30.3230   20.5890   30.9850 O.2    317  TTT317      0.0000
     16 C17       -26.2130   20.5340   29.3710 C.ar   317  TTT317      0.0000
     17 N01       -26.1210   24.1640   30.0160 N.pl3  317  TTT317      0.0000
     18 N2        -30.8560   21.3610   28.9450 N.am   317  TTT317      0.0000
     19 C6        -32.2750   21.0260   29.0640 C.3    317  TTT317      0.0000
     20 C01       -32.9030   20.7250   27.6910 C.3    317  TTT317      0.0000
     21 C5        -33.0030   22.1580   29.7480 C.ar   317  TTT317      0.0000
     22 C18       -35.1990   22.8790   32.9390 C.ar   317  TTT317      0.0000
     23 C4        -33.0300   23.4780   29.2200 C.ar   317  TTT317      0.0000
     24 H         -33.6993   25.5427   29.3930 H      317  TTT317      0.0000
     25 H         -34.9482   25.2404   31.5212 H      317  TTT317      0.0000
     26 H         -28.6990   23.5579   30.2147 H      317  TTT317      0.0000
     27 H         -33.2816   19.7421   31.2517 H      317  TTT317      0.0000
     28 H         -27.3513   18.1596   28.9043 H      317  TTT317      0.0000
     29 H         -28.9720   18.8367   28.5567 H      317  TTT317      0.0000
     30 H         -28.5081   18.4300   30.2476 H      317  TTT317      0.0000
     31 H         -34.5443   19.4672   33.3765 H      317  TTT317      0.0000
     32 H         -24.6386   22.0496   29.4628 H      317  TTT317      0.0000
     33 H         -35.7520   21.4009   34.4551 H      317  TTT317      0.0000
     34 H         -25.5050   19.7204   29.1415 H      317  TTT317      0.0000
     35 H         -30.5014   21.8040   28.0872 H      317  TTT317      0.0000
     36 H         -32.3740   20.0866   29.6464 H      317  TTT317      0.0000
     37 H         -33.9801   20.4601   27.7863 H      317  TTT317      0.0000
     38 H         -32.3959   19.8676   27.1937 H      317  TTT317      0.0000
     39 H         -32.8348   21.5933   26.9987 H      317  TTT317      0.0000
     40 H         -35.7341   23.7066   33.4331 H      317  TTT317      0.0000
     41 H         -32.4964   23.6941   28.2788 H      317  TTT317      0.0000
     42 H         -25.1049   24.2763   29.9067 H      317  TTT317      0.0000
     43 H         -26.7911   24.9103   30.2419 H      317  TTT317      0.0000
@<TRIPOS>BOND
     1     1     2    1
     2     1    15    2
     3     1    18    1
     4     2     5   ar
     5     2     8   ar
     6     3     6   ar
     7     3     9   ar
     8     3    21   ar
     9     4     7   ar
    10     4    23   ar
    11     4    24    1
    12     5    10    1
    13     5    16   ar
    14     6     7   ar
    15     6    22   ar
    16     7    25    1
    17     8    11   ar
    18     8    26    1
    19     9    12   ar
    20     9    27    1
    21    10    28    1
    22    10    29    1
    23    10    30    1
    24    11    13   ar
    25    11    17    1
    26    12    14   ar
    27    12    31    1
    28    13    16   ar
    29    13    32    1
    30    14    22   ar
    31    14    33    1
    32    16    34    1
    33    17    42    1
    34    17    43    1
    35    18    19    1
    36    18    35    1
    37    19    20    1
    38    19    21    1
    39    19    36    1
    40    20    37    1
    41    20    38    1
    42    20    39    1
    43    21    23   ar
    44    22    40    1
    45    23    41    1

