@<TRIPOS>MOLECULE
DMS_1_A_403
 10 9 0 0 0
SMALL
NO_CHARGES

@<TRIPOS>ATOM
      1 S           2.5110  -18.6920    8.0650 S.o    403  DMS403      0.0000
      2 O           3.7430  -18.8500    8.9430 O.2    403  DMS403      0.0000
      3 C1          1.2100  -18.2110    9.1810 C.3    403  DMS403      0.0000
      4 C2          1.9520  -20.3260    7.7600 C.3    403  DMS403      0.0000
      5 H           0.2346  -18.2314    8.6533 H      403  DMS403      0.0000
      6 H           1.4001  -17.1790    9.5406 H      403  DMS403      0.0000
      7 H           1.1735  -18.8956   10.0532 H      403  DMS403      0.0000
      8 H           0.9602  -20.3004    7.2640 H      403  DMS403      0.0000
      9 H           1.8746  -20.8964    8.7084 H      403  DMS403      0.0000
     10 H           2.6704  -20.8411    7.0899 H      403  DMS403      0.0000
@<TRIPOS>BOND
     1     1     2    2
     2     1     3    1
     3     1     4    1
     4     3     5    1
     5     3     6    1
     6     3     7    1
     7     4     8    1
     8     4     9    1
     9     4    10    1

