@<TRIPOS>MOLECULE
DMS_2_A_406
 10 9 0 0 0
SMALL
NO_CHARGES

@<TRIPOS>ATOM
      1 S          -8.8780   -4.4070  -26.1720 S.o    406  DMS406      0.0000
      2 O          -8.8210   -3.1110  -25.4150 O.2    406  DMS406      0.0000
      3 C1         -7.2480   -5.0990  -26.0750 C.3    406  DMS406      0.0000
      4 C2         -9.6930   -5.5580  -25.0970 C.3    406  DMS406      0.0000
      5 H          -7.2514   -6.1297  -26.4848 H      406  DMS406      0.0000
      6 H          -6.8983   -5.1211  -25.0224 H      406  DMS406      0.0000
      7 H          -6.5503   -4.4786  -26.6740 H      406  DMS406      0.0000
      8 H          -9.6405   -6.5785  -25.5286 H      406  DMS406      0.0000
      9 H         -10.7588   -5.2692  -24.9912 H      406  DMS406      0.0000
     10 H          -9.2174   -5.5559  -24.0947 H      406  DMS406      0.0000
@<TRIPOS>BOND
     1     1     2    2
     2     1     3    1
     3     1     4    1
     4     3     5    1
     5     3     6    1
     6     3     7    1
     7     4     8    1
     8     4     9    1
     9     4    10    1

