DMS_2_A_406
  -ISIS-            3D

 10  9  0  0  0  0  0  0  0  0  1 V2000
   -8.8780   -4.4070  -26.1720 S   0  0  0  0  0
   -8.8210   -3.1110  -25.4150 O   0  0  0  0  0
   -7.2480   -5.0990  -26.0750 C   0  0  0  0  0
   -9.6930   -5.5580  -25.0970 C   0  0  0  0  0
   -7.2514   -6.1297  -26.4848 H   0  0  0  0  0
   -6.8983   -5.1211  -25.0224 H   0  0  0  0  0
   -6.5503   -4.4786  -26.6740 H   0  0  0  0  0
   -9.6405   -6.5785  -25.5286 H   0  0  0  0  0
  -10.7588   -5.2692  -24.9912 H   0  0  0  0  0
   -9.2174   -5.5559  -24.0947 H   0  0  0  0  0
  1  2  2  0  0  0
  1  3  1  0  0  0
  1  4  1  0  0  0
  3  5  1  0  0  0
  3  6  1  0  0  0
  3  7  1  0  0  0
  4  8  1  0  0  0
  4  9  1  0  0  0
  4 10  1  0  0  0
M  END
$$$$
