DMS_1_A_402
  -ISIS-            3D

 10  9  0  0  0  0  0  0  0  0  1 V2000
    6.0880   -1.0480   -6.2230 S   0  0  0  0  0
    7.0340   -0.7530   -7.3390 O   0  0  0  0  0
    7.0750   -1.0030   -4.7300 C   0  0  0  0  0
    5.8320   -2.7870   -6.2130 C   0  0  0  0  0
    6.4718   -1.3545   -3.8680 H   0  0  0  0  0
    7.3969    0.0411   -4.5380 H   0  0  0  0  0
    7.9748   -1.6426   -4.8397 H   0  0  0  0  0
    5.2629   -3.0821   -5.3078 H   0  0  0  0  0
    6.8016   -3.3256   -6.2318 H   0  0  0  0  0
    5.2459   -3.0758   -7.1094 H   0  0  0  0  0
  1  2  2  0  0  0
  1  3  1  0  0  0
  1  4  1  0  0  0
  3  5  1  0  0  0
  3  6  1  0  0  0
  3  7  1  0  0  0
  4  8  1  0  0  0
  4  9  1  0  0  0
  4 10  1  0  0  0
M  END
$$$$
