@<TRIPOS>MOLECULE
DMS_1_A_405
 10 9 0 0 0
SMALL
NO_CHARGES

@<TRIPOS>ATOM
      1 S           5.7000    0.3970   18.3740 S.o    405  DMS405      0.0000
      2 O           6.6870    0.0150   19.4380 O.2    405  DMS405      0.0000
      3 C1          6.6180    1.2980   17.1660 C.3    405  DMS405      0.0000
      4 C2          4.7770    1.7570   19.0460 C.3    405  DMS405      0.0000
      5 H           5.9266    1.7443   16.4226 H      405  DMS405      0.0000
      6 H           7.3096    0.6080   16.6405 H      405  DMS405      0.0000
      7 H           7.2102    2.1030   17.6486 H      405  DMS405      0.0000
      8 H           4.1260    2.1939   18.2618 H      405  DMS405      0.0000
      9 H           5.4638    2.5378   19.4335 H      405  DMS405      0.0000
     10 H           4.1396    1.3920   19.8774 H      405  DMS405      0.0000
@<TRIPOS>BOND
     1     1     2    2
     2     1     3    1
     3     1     4    1
     4     3     5    1
     5     3     6    1
     6     3     7    1
     7     4     8    1
     8     4     9    1
     9     4    10    1

