DMS_2_A_405
  -ISIS-            3D

 10  9  0  0  0  0  0  0  0  0  1 V2000
   -5.7000    0.3970  -18.3740 S   0  0  0  0  0
   -6.6870    0.0150  -19.4380 O   0  0  0  0  0
   -6.6180    1.2980  -17.1660 C   0  0  0  0  0
   -4.7770    1.7570  -19.0460 C   0  0  0  0  0
   -5.9266    1.7443  -16.4226 H   0  0  0  0  0
   -7.3096    0.6080  -16.6405 H   0  0  0  0  0
   -7.2102    2.1030  -17.6486 H   0  0  0  0  0
   -4.1260    2.1939  -18.2618 H   0  0  0  0  0
   -5.4638    2.5378  -19.4335 H   0  0  0  0  0
   -4.1396    1.3920  -19.8774 H   0  0  0  0  0
  1  2  2  0  0  0
  1  3  1  0  0  0
  1  4  1  0  0  0
  3  5  1  0  0  0
  3  6  1  0  0  0
  3  7  1  0  0  0
  4  8  1  0  0  0
  4  9  1  0  0  0
  4 10  1  0  0  0
M  END
$$$$
