@<TRIPOS>MOLECULE
3EU_1_A_201
 17 17 0 0 0
SMALL
NO_CHARGES

@<TRIPOS>ATOM
      1 C12       -43.7980  -31.7000    2.2450 C.2    201  3EU201      0.0000
      2 C13       -43.2960  -31.0550    0.9450 C.3    201  3EU201      0.0000
      3 C15       -44.0110  -29.7720    0.6080 C.ar   201  3EU201      0.0000
      4 C16       -43.3180  -28.5670    0.6590 C.ar   201  3EU201      0.0000
      5 C17       -44.0460  -27.4620    0.4170 C.ar   201  3EU201      0.0000
      6 C18       -45.3400  -27.4570    0.1300 C.ar   201  3EU201      0.0000
      7 C19       -45.9970  -28.5990    0.1390 C.ar   201  3EU201      0.0000
      8 C20       -45.3350  -29.7640    0.4230 C.ar   201  3EU201      0.0000
      9 O14       -44.3230  -32.8420    2.0610 O.co2  201  3EU201     -0.5000
     10 CL1       -47.7060  -28.6410   -0.1850 Cl     201  3EU201      0.0000
     11 CL2       -43.2360  -25.9340    0.3950 Cl     201  3EU201      0.0000
     12 OXT       -43.5690  -31.1490    3.3350 O.co2  201  3EU201     -0.5000
     13 H         -43.4135  -31.7615    0.0914 H      201  3EU201      0.0000
     14 H         -42.2010  -30.8745    1.0371 H      201  3EU201      0.0000
     15 H         -42.2384  -28.5221    0.8770 H      201  3EU201      0.0000
     16 H         -45.8656  -26.5144   -0.1001 H      201  3EU201      0.0000
     17 H         -45.9033  -30.7092    0.4690 H      201  3EU201      0.0000
@<TRIPOS>BOND
     1     1     2    1
     2     1     9   ar
     3     1    12   ar
     4     2     3    1
     5     2    13    1
     6     2    14    1
     7     3     4   ar
     8     3     8   ar
     9     4     5   ar
    10     4    15    1
    11     5     6   ar
    12     5    11    1
    13     6     7   ar
    14     6    16    1
    15     7     8   ar
    16     7    10    1
    17     8    17    1

