@<TRIPOS>MOLECULE
DMS_1_A_202
 10 9 0 0 0
SMALL
NO_CHARGES

@<TRIPOS>ATOM
      1 S         -44.5190  -35.5430   -2.2620 S.o    202  DMS202      0.0000
      2 O         -44.4440  -34.0300   -2.4320 O.2    202  DMS202      0.0000
      3 C1        -43.7380  -36.2500   -3.6990 C.3    202  DMS202      0.0000
      4 C2        -46.1630  -36.0490   -2.7380 C.3    202  DMS202      0.0000
      5 H         -43.8863  -37.3491   -3.7095 H      202  DMS202      0.0000
      6 H         -42.6496  -36.0388   -3.6624 H      202  DMS202      0.0000
      7 H         -44.1569  -35.8089   -4.6269 H      202  DMS202      0.0000
      8 H         -46.2224  -37.1559   -2.7787 H      202  DMS202      0.0000
      9 H         -46.4296  -35.6247   -3.7279 H      202  DMS202      0.0000
     10 H         -46.8888  -35.6813   -1.9841 H      202  DMS202      0.0000
@<TRIPOS>BOND
     1     1     2    2
     2     1     3    1
     3     1     4    1
     4     3     5    1
     5     3     6    1
     6     3     7    1
     7     4     8    1
     8     4     9    1
     9     4    10    1

