EDO_1_A_605
  -ISIS-            3D

 10  9  0  0  0  0  0  0  0  0  1 V2000
   17.6270   25.2950  -22.8060 C   0  0  0  0  0
   17.7450   23.8990  -22.5030 O   0  0  0  0  0
   18.1800   25.5690  -24.2010 C   0  0  0  0  0
   17.8930   26.9240  -24.5810 O   0  0  0  0  0
   18.1556   25.9011  -22.0404 H   0  0  0  0  0
   16.5535   25.5729  -22.7607 H   0  0  0  0  0
   18.6162   23.7386  -22.1651 H   0  0  0  0  0
   17.7171   24.8779  -24.9372 H   0  0  0  0  0
   19.2772   25.3999  -24.2245 H   0  0  0  0  0
   18.1873   27.0507  -25.4735 H   0  0  0  0  0
  1  2  1  0  0  0
  1  3  1  0  0  0
  1  5  1  0  0  0
  1  6  1  0  0  0
  2  7  1  0  0  0
  3  4  1  0  0  0
  3  8  1  0  0  0
  3  9  1  0  0  0
  4 10  1  0  0  0
M  END
$$$$
