@<TRIPOS>MOLECULE
EDO_1_H_302
 10 9 0 0 0
SMALL
NO_CHARGES

@<TRIPOS>ATOM
      1 C1          3.0860  -39.2010  -18.9190 C.3    302  EDO302      0.0000
      2 O1          4.1220  -39.2280  -17.9380 O.3    302  EDO302      0.0000
      3 C2          2.2190  -37.9840  -18.6500 C.3    302  EDO302      0.0000
      4 O2          1.5400  -38.1360  -17.3950 O.3    302  EDO302      0.0000
      5 H           2.4916  -40.1375  -18.8743 H      302  EDO302      0.0000
      6 H           3.5369  -39.1356  -19.9318 H      302  EDO302      0.0000
      7 H           4.6671  -39.9880  -18.0956 H      302  EDO302      0.0000
      8 H           1.4700  -37.8526  -19.4593 H      302  EDO302      0.0000
      9 H           2.8333  -37.0605  -18.6214 H      302  EDO302      0.0000
     10 H           0.9637  -38.8869  -17.4478 H      302  EDO302      0.0000
@<TRIPOS>BOND
     1     1     2    1
     2     1     3    1
     3     1     5    1
     4     1     6    1
     5     2     7    1
     6     3     4    1
     7     3     8    1
     8     3     9    1
     9     4    10    1

