EDO_1_H_310
  -ISIS-            3D

 10  9  0  0  0  0  0  0  0  0  1 V2000
   -2.1900  -30.7930   -0.9790 C   0  0  0  0  0
   -1.9810  -32.1710   -0.6290 O   0  0  0  0  0
   -1.7440  -30.5270   -2.4160 C   0  0  0  0  0
   -2.6330  -31.1560   -3.3610 O   0  0  0  0  0
   -1.6064  -30.1532   -0.2832 H   0  0  0  0  0
   -3.2603  -30.5293   -0.8462 H   0  0  0  0  0
   -2.2855  -32.3049    0.2592 H   0  0  0  0  0
   -0.7151  -30.9085   -2.5792 H   0  0  0  0  0
   -1.7184  -29.4345   -2.6145 H   0  0  0  0  0
   -3.4848  -30.7447   -3.2961 H   0  0  0  0  0
  1  2  1  0  0  0
  1  3  1  0  0  0
  1  5  1  0  0  0
  1  6  1  0  0  0
  2  7  1  0  0  0
  3  4  1  0  0  0
  3  8  1  0  0  0
  3  9  1  0  0  0
  4 10  1  0  0  0
M  END
$$$$
