EDO_1_H_301
  -ISIS-            3D

 10  9  0  0  0  0  0  0  0  0  1 V2000
    7.4570  -67.1370  -15.3130 C   0  0  0  0  0
    7.6590  -68.1530  -16.3250 O   0  0  0  0  0
    7.7770  -65.7350  -15.8460 C   0  0  0  0  0
    7.0600  -65.4220  -17.0650 O   0  0  0  0  0
    8.0942  -67.3725  -14.4357 H   0  0  0  0  0
    6.4024  -67.1801  -14.9682 H   0  0  0  0  0
    7.2782  -67.8067  -17.1239 H   0  0  0  0  0
    8.8677  -65.6556  -16.0416 H   0  0  0  0  0
    7.5313  -64.9766  -15.0726 H   0  0  0  0  0
    7.3031  -64.5458  -17.3326 H   0  0  0  0  0
  1  2  1  0  0  0
  1  3  1  0  0  0
  1  5  1  0  0  0
  1  6  1  0  0  0
  2  7  1  0  0  0
  3  4  1  0  0  0
  3  8  1  0  0  0
  3  9  1  0  0  0
  4 10  1  0  0  0
M  END
$$$$
