@<TRIPOS>MOLECULE
EDO_1_H_309
 10 9 0 0 0
SMALL
NO_CHARGES

@<TRIPOS>ATOM
      1 C1          0.5530  -56.7930   -6.2630 C.3    309  EDO309      0.0000
      2 O1         -0.4590  -55.7550   -6.1190 O.3    309  EDO309      0.0000
      3 C2          0.1420  -57.7630   -7.3690 C.3    309  EDO309      0.0000
      4 O2         -1.2110  -58.2490   -7.1620 O.3    309  EDO309      0.0000
      5 H           0.6619  -57.3289   -5.2968 H      309  EDO309      0.0000
      6 H           1.5302  -56.3210   -6.4929 H      309  EDO309      0.0000
      7 H          -1.2975  -56.2015   -6.1564 H      309  EDO309      0.0000
      8 H           0.8439  -58.6229   -7.4016 H      309  EDO309      0.0000
      9 H           0.1973  -57.2549   -8.3553 H      309  EDO309      0.0000
     10 H          -1.4187  -58.8464   -7.8679 H      309  EDO309      0.0000
@<TRIPOS>BOND
     1     1     2    1
     2     1     3    1
     3     1     5    1
     4     1     6    1
     5     2     7    1
     6     3     4    1
     7     3     8    1
     8     3     9    1
     9     4    10    1

