EDO_1_H_302
  -ISIS-            3D

 10  9  0  0  0  0  0  0  0  0  1 V2000
    3.0860  -39.2010  -18.9190 C   0  0  0  0  0
    4.1220  -39.2280  -17.9380 O   0  0  0  0  0
    2.2190  -37.9840  -18.6500 C   0  0  0  0  0
    1.5400  -38.1360  -17.3950 O   0  0  0  0  0
    2.4916  -40.1375  -18.8743 H   0  0  0  0  0
    3.5369  -39.1356  -19.9318 H   0  0  0  0  0
    4.6671  -39.9880  -18.0956 H   0  0  0  0  0
    1.4700  -37.8526  -19.4593 H   0  0  0  0  0
    2.8333  -37.0605  -18.6214 H   0  0  0  0  0
    0.9637  -38.8869  -17.4478 H   0  0  0  0  0
  1  2  1  0  0  0
  1  3  1  0  0  0
  1  5  1  0  0  0
  1  6  1  0  0  0
  2  7  1  0  0  0
  3  4  1  0  0  0
  3  8  1  0  0  0
  3  9  1  0  0  0
  4 10  1  0  0  0
M  END
$$$$
