@<TRIPOS>MOLECULE
EDO_1_H_304
 10 9 0 0 0
SMALL
NO_CHARGES

@<TRIPOS>ATOM
      1 C1          0.2210  -10.0170  -20.7270 C.3    304  EDO304      0.0000
      2 O1          1.2750   -9.5760  -21.5980 O.3    304  EDO304      0.0000
      3 C2         -0.4380  -11.2770  -21.2890 C.3    304  EDO304      0.0000
      4 O2          0.5470  -12.2840  -21.5580 O.3    304  EDO304      0.0000
      5 H          -0.5291   -9.2066  -20.6115 H      304  EDO304      0.0000
      6 H           0.6392  -10.2298  -19.7200 H      304  EDO304      0.0000
      7 H           1.7785   -8.9127  -21.1443 H      304  EDO304      0.0000
      8 H          -0.9777  -11.0292  -22.2280 H      304  EDO304      0.0000
      9 H          -1.1867  -11.6732  -20.5713 H      304  EDO304      0.0000
     10 H           0.1406  -12.9694  -22.0721 H      304  EDO304      0.0000
@<TRIPOS>BOND
     1     1     2    1
     2     1     3    1
     3     1     5    1
     4     1     6    1
     5     2     7    1
     6     3     4    1
     7     3     8    1
     8     3     9    1
     9     4    10    1

