@<TRIPOS>MOLECULE
EDO_1_A_602
 10 9 0 0 0
SMALL
NO_CHARGES

@<TRIPOS>ATOM
      1 C1         13.6900   16.5170  -48.4390 C.3    602  EDO602      0.0000
      2 O1         13.7020   17.5560  -49.4330 O.3    602  EDO602      0.0000
      3 C2         12.4560   15.6450  -48.6180 C.3    602  EDO602      0.0000
      4 O2         12.5180   14.9860  -49.8850 O.3    602  EDO602      0.0000
      5 H          13.6896   16.9861  -47.4335 H      602  EDO602      0.0000
      6 H          14.6180   15.9131  -48.5193 H      602  EDO602      0.0000
      7 H          13.5763   17.1232  -50.2695 H      602  EDO602      0.0000
      8 H          11.5328   16.2591  -48.5577 H      602  EDO602      0.0000
      9 H          12.4059   14.8857  -47.8091 H      602  EDO602      0.0000
     10 H          11.7451   14.4449  -49.9760 H      602  EDO602      0.0000
@<TRIPOS>BOND
     1     1     2    1
     2     1     3    1
     3     1     5    1
     4     1     6    1
     5     2     7    1
     6     3     4    1
     7     3     8    1
     8     3     9    1
     9     4    10    1

