@<TRIPOS>MOLECULE
EDO_1_H_301
 10 9 0 0 0
SMALL
NO_CHARGES

@<TRIPOS>ATOM
      1 C1          7.4570  -67.1370  -15.3130 C.3    301  EDO301      0.0000
      2 O1          7.6590  -68.1530  -16.3250 O.3    301  EDO301      0.0000
      3 C2          7.7770  -65.7350  -15.8460 C.3    301  EDO301      0.0000
      4 O2          7.0600  -65.4220  -17.0650 O.3    301  EDO301      0.0000
      5 H           8.0942  -67.3725  -14.4357 H      301  EDO301      0.0000
      6 H           6.4024  -67.1801  -14.9682 H      301  EDO301      0.0000
      7 H           7.2782  -67.8067  -17.1239 H      301  EDO301      0.0000
      8 H           8.8677  -65.6556  -16.0416 H      301  EDO301      0.0000
      9 H           7.5313  -64.9766  -15.0726 H      301  EDO301      0.0000
     10 H           7.3031  -64.5458  -17.3326 H      301  EDO301      0.0000
@<TRIPOS>BOND
     1     1     2    1
     2     1     3    1
     3     1     5    1
     4     1     6    1
     5     2     7    1
     6     3     4    1
     7     3     8    1
     8     3     9    1
     9     4    10    1

