EDO_1_H_309
  -ISIS-            3D

 10  9  0  0  0  0  0  0  0  0  1 V2000
    0.5530  -56.7930   -6.2630 C   0  0  0  0  0
   -0.4590  -55.7550   -6.1190 O   0  0  0  0  0
    0.1420  -57.7630   -7.3690 C   0  0  0  0  0
   -1.2110  -58.2490   -7.1620 O   0  0  0  0  0
    0.6619  -57.3289   -5.2968 H   0  0  0  0  0
    1.5302  -56.3210   -6.4929 H   0  0  0  0  0
   -1.2975  -56.2015   -6.1564 H   0  0  0  0  0
    0.8439  -58.6229   -7.4016 H   0  0  0  0  0
    0.1973  -57.2549   -8.3553 H   0  0  0  0  0
   -1.4187  -58.8464   -7.8679 H   0  0  0  0  0
  1  2  1  0  0  0
  1  3  1  0  0  0
  1  5  1  0  0  0
  1  6  1  0  0  0
  2  7  1  0  0  0
  3  4  1  0  0  0
  3  8  1  0  0  0
  3  9  1  0  0  0
  4 10  1  0  0  0
M  END
$$$$
