EDO_1_L_402
  -ISIS-            3D

 10  9  0  0  0  0  0  0  0  0  1 V2000
    3.9880  -61.1860   10.0020 C   0  0  0  0  0
    4.2960  -62.5740   10.1480 O   0  0  0  0  0
    2.4690  -61.0490   10.0400 C   0  0  0  0  0
    1.9590  -61.4050   11.3240 O   0  0  0  0  0
    4.3868  -60.8141    9.0347 H   0  0  0  0  0
    4.4614  -60.5998   10.8173 H   0  0  0  0  0
    5.2381  -62.6733   10.1142 H   0  0  0  0  0
    1.9945  -61.6816    9.2606 H   0  0  0  0  0
    2.1781  -59.9999    9.8247 H   0  0  0  0  0
    2.3151  -62.2633   11.5216 H   0  0  0  0  0
  1  2  1  0  0  0
  1  3  1  0  0  0
  1  5  1  0  0  0
  1  6  1  0  0  0
  2  7  1  0  0  0
  3  4  1  0  0  0
  3  8  1  0  0  0
  3  9  1  0  0  0
  4 10  1  0  0  0
M  END
$$$$
