EDO_1_L_401
  -ISIS-            3D

 10  9  0  0  0  0  0  0  0  0  1 V2000
   -4.0060  -38.9570  -11.3580 C   0  0  0  0  0
   -3.7330  -40.0310  -12.2720 O   0  0  0  0  0
   -4.5090  -37.7840  -12.1830 C   0  0  0  0  0
   -3.5770  -37.5280  -13.2550 O   0  0  0  0  0
   -3.0791  -38.6916  -10.8079 H   0  0  0  0  0
   -4.7620  -39.2825  -10.6148 H   0  0  0  0  0
   -3.2328  -39.6542  -12.9875 H   0  0  0  0  0
   -4.6119  -36.8787  -11.5485 H   0  0  0  0  0
   -5.5093  -38.0113  -12.6093 H   0  0  0  0  0
   -3.9056  -36.7972  -13.7612 H   0  0  0  0  0
  1  2  1  0  0  0
  1  3  1  0  0  0
  1  5  1  0  0  0
  1  6  1  0  0  0
  2  7  1  0  0  0
  3  4  1  0  0  0
  3  8  1  0  0  0
  3  9  1  0  0  0
  4 10  1  0  0  0
M  END
$$$$
