EDO_1_A_602
  -ISIS-            3D

 10  9  0  0  0  0  0  0  0  0  1 V2000
   13.6900   16.5170  -48.4390 C   0  0  0  0  0
   13.7020   17.5560  -49.4330 O   0  0  0  0  0
   12.4560   15.6450  -48.6180 C   0  0  0  0  0
   12.5180   14.9860  -49.8850 O   0  0  0  0  0
   13.6896   16.9861  -47.4335 H   0  0  0  0  0
   14.6180   15.9131  -48.5193 H   0  0  0  0  0
   13.5763   17.1232  -50.2695 H   0  0  0  0  0
   11.5328   16.2591  -48.5577 H   0  0  0  0  0
   12.4059   14.8857  -47.8091 H   0  0  0  0  0
   11.7451   14.4449  -49.9760 H   0  0  0  0  0
  1  2  1  0  0  0
  1  3  1  0  0  0
  1  5  1  0  0  0
  1  6  1  0  0  0
  2  7  1  0  0  0
  3  4  1  0  0  0
  3  8  1  0  0  0
  3  9  1  0  0  0
  4 10  1  0  0  0
M  END
$$$$
