EDO_1_H_306
  -ISIS-            3D

 10  9  0  0  0  0  0  0  0  0  1 V2000
  -14.9670  -53.1640  -17.3300 C   0  0  0  0  0
  -14.4500  -54.2340  -16.5150 O   0  0  0  0  0
  -15.4740  -53.7630  -18.6340 C   0  0  0  0  0
  -16.4300  -54.7950  -18.3310 O   0  0  0  0  0
  -14.1680  -52.4189  -17.5273 H   0  0  0  0  0
  -15.7891  -52.6469  -16.7913 H   0  0  0  0  0
  -14.1284  -53.8583  -15.7056 H   0  0  0  0  0
  -14.6378  -54.1951  -19.2229 H   0  0  0  0  0
  -15.9586  -52.9888  -19.2633 H   0  0  0  0  0
  -16.0319  -55.3321  -17.6554 H   0  0  0  0  0
  1  2  1  0  0  0
  1  3  1  0  0  0
  1  5  1  0  0  0
  1  6  1  0  0  0
  2  7  1  0  0  0
  3  4  1  0  0  0
  3  8  1  0  0  0
  3  9  1  0  0  0
  4 10  1  0  0  0
M  END
$$$$
