EDO_1_H_311
  -ISIS-            3D

 10  9  0  0  0  0  0  0  0  0  1 V2000
    2.7700  -46.2450   -6.2430 C   0  0  0  0  0
    3.5020  -45.8260   -5.0830 O   0  0  0  0  0
    3.7170  -46.2280   -7.4420 C   0  0  0  0  0
    3.0610  -46.6900   -8.6320 O   0  0  0  0  0
    1.9225  -45.5477   -6.4053 H   0  0  0  0  0
    2.3446  -47.2578   -6.0815 H   0  0  0  0  0
    3.9791  -46.5716   -4.7438 H   0  0  0  0  0
    4.5872  -46.8892   -7.2478 H   0  0  0  0  0
    4.1195  -45.2064   -7.6098 H   0  0  0  0  0
    2.5208  -45.9862   -8.9671 H   0  0  0  0  0
  1  2  1  0  0  0
  1  3  1  0  0  0
  1  5  1  0  0  0
  1  6  1  0  0  0
  2  7  1  0  0  0
  3  4  1  0  0  0
  3  8  1  0  0  0
  3  9  1  0  0  0
  4 10  1  0  0  0
M  END
$$$$
