@<TRIPOS>MOLECULE
EDO_1_H_303
 10 9 0 0 0
SMALL
NO_CHARGES

@<TRIPOS>ATOM
      1 C1          2.6750   -8.4490  -18.4710 C.3    303  EDO303      0.0000
      2 O1          3.3510   -8.6240  -19.7300 O.3    303  EDO303      0.0000
      3 C2          2.5950   -6.9700  -18.1110 C.3    303  EDO303      0.0000
      4 O2          1.8300   -6.2910  -19.1090 O.3    303  EDO303      0.0000
      5 H           3.2054   -9.0152  -17.6762 H      303  EDO303      0.0000
      6 H           1.6561   -8.8823  -18.5487 H      303  EDO303      0.0000
      7 H           4.2802   -8.7105  -19.5628 H      303  EDO303      0.0000
      8 H           3.6073   -6.5196  -18.0439 H      303  EDO303      0.0000
      9 H           2.1043   -6.8333  -17.1254 H      303  EDO303      0.0000
     10 H           2.1432   -6.6027  -19.9505 H      303  EDO303      0.0000
@<TRIPOS>BOND
     1     1     2    1
     2     1     3    1
     3     1     5    1
     4     1     6    1
     5     2     7    1
     6     3     4    1
     7     3     8    1
     8     3     9    1
     9     4    10    1

