DMS_2_A_402
  -ISIS-            3D

 10  9  0  0  0  0  0  0  0  0  1 V2000
   -6.1850   -0.9370    6.1950 S   0  0  0  0  0
   -7.1590   -0.6870    7.2830 O   0  0  0  0  0
   -7.0960   -0.8230    4.6560 C   0  0  0  0  0
   -5.8750   -2.6780    6.1520 C   0  0  0  0  0
   -6.4444   -1.1251    3.8108 H   0  0  0  0  0
   -7.4215    0.2260    4.5013 H   0  0  0  0  0
   -7.9901   -1.4786    4.6883 H   0  0  0  0  0
   -5.2543   -2.9291    5.2672 H   0  0  0  0  0
   -6.8300   -3.2404    6.1051 H   0  0  0  0  0
   -5.3266   -2.9756    7.0689 H   0  0  0  0  0
  1  2  2  0  0  0
  1  3  1  0  0  0
  1  4  1  0  0  0
  3  5  1  0  0  0
  3  6  1  0  0  0
  3  7  1  0  0  0
  4  8  1  0  0  0
  4  9  1  0  0  0
  4 10  1  0  0  0
M  END
$$$$
