@<TRIPOS>MOLECULE
DMS_1_A_402
 10 9 0 0 0
SMALL
NO_CHARGES

@<TRIPOS>ATOM
      1 S           6.1850   -0.9370   -6.1950 S.o    402  DMS402      0.0000
      2 O           7.1590   -0.6870   -7.2830 O.2    402  DMS402      0.0000
      3 C1          7.0960   -0.8230   -4.6560 C.3    402  DMS402      0.0000
      4 C2          5.8750   -2.6780   -6.1520 C.3    402  DMS402      0.0000
      5 H           6.4444   -1.1251   -3.8108 H      402  DMS402      0.0000
      6 H           7.4215    0.2260   -4.5013 H      402  DMS402      0.0000
      7 H           7.9901   -1.4786   -4.6883 H      402  DMS402      0.0000
      8 H           5.2543   -2.9291   -5.2672 H      402  DMS402      0.0000
      9 H           6.8300   -3.2404   -6.1051 H      402  DMS402      0.0000
     10 H           5.3266   -2.9756   -7.0689 H      402  DMS402      0.0000
@<TRIPOS>BOND
     1     1     2    2
     2     1     3    1
     3     1     4    1
     4     3     5    1
     5     3     6    1
     6     3     7    1
     7     4     8    1
     8     4     9    1
     9     4    10    1

