@<TRIPOS>MOLECULE
DMS_2_A_401
 10 9 0 0 0
SMALL
NO_CHARGES

@<TRIPOS>ATOM
      1 S          -7.1330  -28.1230  -21.3630 S.o    401  DMS401      0.0000
      2 O          -7.7570  -27.1210  -22.2250 O.2    401  DMS401      0.0000
      3 C1         -5.8730  -28.8630  -22.3790 C.3    401  DMS401      0.0000
      4 C2         -6.1030  -27.2600  -20.2330 C.3    401  DMS401      0.0000
      5 H          -5.2530  -29.5494  -21.7668 H      401  DMS401      0.0000
      6 H          -5.2257  -28.0797  -22.8244 H      401  DMS401      0.0000
      7 H          -6.3520  -29.4437  -23.1938 H      401  DMS401      0.0000
      8 H          -5.4866  -27.9812  -19.6584 H      401  DMS401      0.0000
      9 H          -6.7339  -26.6858  -19.5240 H      401  DMS401      0.0000
     10 H          -5.4370  -26.5565  -20.7737 H      401  DMS401      0.0000
@<TRIPOS>BOND
     1     1     2    2
     2     1     3    1
     3     1     4    1
     4     3     5    1
     5     3     6    1
     6     3     7    1
     7     4     8    1
     8     4     9    1
     9     4    10    1

