@<TRIPOS>MOLECULE
DMS_2_A_401
 10 9 0 0 0
SMALL
NO_CHARGES

@<TRIPOS>ATOM
      1 S          -7.2380  -28.3910  -21.4430 S.o    401  DMS401      0.0000
      2 O          -8.1620  -27.4510  -22.1370 O.2    401  DMS401      0.0000
      3 C1         -6.0240  -28.8620  -22.6340 C.3    401  DMS401      0.0000
      4 C2         -6.1910  -27.4060  -20.4140 C.3    401  DMS401      0.0000
      5 H          -5.2260  -29.4573  -22.1449 H      401  DMS401      0.0000
      6 H          -5.5766  -27.9648  -23.1089 H      401  DMS401      0.0000
      7 H          -6.5016  -29.4837  -23.4188 H      401  DMS401      0.0000
      8 H          -5.3903  -28.0366  -19.9763 H      401  DMS401      0.0000
      9 H          -6.7920  -26.9702  -19.5898 H      401  DMS401      0.0000
     10 H          -5.7338  -26.5825  -21.0002 H      401  DMS401      0.0000
@<TRIPOS>BOND
     1     1     2    2
     2     1     3    1
     3     1     4    1
     4     3     5    1
     5     3     6    1
     6     3     7    1
     7     4     8    1
     8     4     9    1
     9     4    10    1

