@<TRIPOS>MOLECULE
DMS_1_A_402
 10 9 0 0 0
SMALL
NO_CHARGES

@<TRIPOS>ATOM
      1 S           6.1800   -0.8450   -6.2630 S.o    402  DMS402      0.0000
      2 O           7.1730   -0.4590   -7.3250 O.2    402  DMS402      0.0000
      3 C1          7.0710   -0.8680   -4.7240 C.3    402  DMS402      0.0000
      4 C2          5.8980   -2.5890   -6.4310 C.3    402  DMS402      0.0000
      5 H           6.4216   -1.2708   -3.9199 H      402  DMS402      0.0000
      6 H           7.3710    0.1663   -4.4586 H      402  DMS402      0.0000
      7 H           7.9803   -1.4966   -4.8146 H      402  DMS402      0.0000
      8 H           5.2740   -2.9519   -5.5886 H      402  DMS402      0.0000
      9 H           6.8625   -3.1365   -6.4391 H      402  DMS402      0.0000
     10 H           5.3634   -2.7841   -7.3832 H      402  DMS402      0.0000
@<TRIPOS>BOND
     1     1     2    2
     2     1     3    1
     3     1     4    1
     4     3     5    1
     5     3     6    1
     6     3     7    1
     7     4     8    1
     8     4     9    1
     9     4    10    1

