@<TRIPOS>MOLECULE
DMS_1_A_404
 10 9 0 0 0
SMALL
NO_CHARGES

@<TRIPOS>ATOM
      1 S          20.7170  -15.5620    4.7190 S.o    404  DMS404      0.0000
      2 O          20.0360  -16.4850    5.6940 O.2    404  DMS404      0.0000
      3 C1         20.8110  -16.4490    3.1830 C.3    404  DMS404      0.0000
      4 C2         22.4420  -15.5960    5.1290 C.3    404  DMS404      0.0000
      5 H          21.4292  -15.8813    2.4580 H      404  DMS404      0.0000
      6 H          19.7900  -16.5686    2.7662 H      404  DMS404      0.0000
      7 H          21.2560  -17.4528    3.3424 H      404  DMS404      0.0000
      8 H          23.0227  -15.0479    4.3593 H      404  DMS404      0.0000
      9 H          22.8049  -16.6427    5.1902 H      404  DMS404      0.0000
     10 H          22.5950  -15.1030    6.1108 H      404  DMS404      0.0000
@<TRIPOS>BOND
     1     1     2    2
     2     1     3    1
     3     1     4    1
     4     3     5    1
     5     3     6    1
     6     3     7    1
     7     4     8    1
     8     4     9    1
     9     4    10    1

