EDO_2_B_503
  -ISIS-            3D

 10  9  0  0  0  0  0  0  0  0  1 V2000
  -88.9790   67.9850   25.2070 C   0  0  0  0  0
  -89.2180   67.5790   26.5590 O   0  0  0  0  0
  -89.1510   66.7900   24.2780 C   0  0  0  0  0
  -88.2110   65.7720   24.6400 O   0  0  0  0  0
  -87.9573   68.4109   25.1216 H   0  0  0  0  0
  -89.6948   68.7900   24.9414 H   0  0  0  0  0
  -88.7612   66.7538   26.6766 H   0  0  0  0  0
  -89.0055   67.0893   23.2184 H   0  0  0  0  0
  -90.1783   66.3785   24.3624 H   0  0  0  0  0
  -87.4460   65.8561   24.0864 H   0  0  0  0  0
  1  2  1  0  0  0
  1  3  1  0  0  0
  1  5  1  0  0  0
  1  6  1  0  0  0
  2  7  1  0  0  0
  3  4  1  0  0  0
  3  8  1  0  0  0
  3  9  1  0  0  0
  4 10  1  0  0  0
M  END
$$$$
