@<TRIPOS>MOLECULE
EDO_2_B_501
 10 9 0 0 0
SMALL
NO_CHARGES

@<TRIPOS>ATOM
      1 C1        -36.6080   71.2940   26.7700 C.3    501  EDO501      0.0000
      2 O1        -35.2300   70.9220   26.6660 O.3    501  EDO501      0.0000
      3 C2        -36.9110   71.6820   28.2100 C.3    501  EDO501      0.0000
      4 O2        -36.5310   70.6050   29.0730 O.3    501  EDO501      0.0000
      5 H         -37.2453   70.4436   26.4484 H      501  EDO501      0.0000
      6 H         -36.8116   72.1398   26.0817 H      501  EDO501      0.0000
      7 H         -35.0606   70.3289   27.3895 H      501  EDO501      0.0000
      8 H         -37.9931   71.8989   28.3323 H      501  EDO501      0.0000
      9 H         -36.3503   72.5989   28.4900 H      501  EDO501      0.0000
     10 H         -36.7347   70.8543   29.9646 H      501  EDO501      0.0000
@<TRIPOS>BOND
     1     1     2    1
     2     1     3    1
     3     1     5    1
     4     1     6    1
     5     2     7    1
     6     3     4    1
     7     3     8    1
     8     3     9    1
     9     4    10    1

