@<TRIPOS>MOLECULE
EDO_1_B_503
 10 9 0 0 0
SMALL
NO_CHARGES

@<TRIPOS>ATOM
      1 C1        -47.5090   43.0660   25.2070 C.3    503  EDO503      0.0000
      2 O1        -47.7410   43.4760   26.5590 O.3    503  EDO503      0.0000
      3 C2        -48.4570   43.8120   24.2780 C.3    503  EDO503      0.0000
      4 O2        -49.8090   43.5070   24.6400 O.3    503  EDO503      0.0000
      5 H         -47.6535   41.9686   25.1212 H      503  EDO503      0.0000
      6 H         -46.4535   43.2809   24.9414 H      503  EDO503      0.0000
      7 H         -48.6794   43.4145   26.6967 H      503  EDO503      0.0000
      8 H         -48.2768   43.5112   23.2243 H      503  EDO503      0.0000
      9 H         -48.2880   44.9074   24.3477 H      503  EDO503      0.0000
     10 H         -50.3855   43.9735   24.0497 H      503  EDO503      0.0000
@<TRIPOS>BOND
     1     1     2    1
     2     1     3    1
     3     1     5    1
     4     1     6    1
     5     2     7    1
     6     3     4    1
     7     3     8    1
     8     3     9    1
     9     4    10    1

