@<TRIPOS>MOLECULE
EDO_3_B_501
 10 9 0 0 0
SMALL
NO_CHARGES

@<TRIPOS>ATOM
      1 C1       -118.8760   63.3110   26.7700 C.3    501  EDO501      0.0000
      2 O1       -119.2420   64.6900   26.6660 O.3    501  EDO501      0.0000
      3 C2       -119.0600   62.8550   28.2100 C.3    501  EDO501      0.0000
      4 O2       -118.3180   63.7230   29.0730 O.3    501  EDO501      0.0000
      5 H        -117.8160   63.1982   26.4621 H      501  EDO501      0.0000
      6 H        -119.4858   62.6908   26.0786 H      501  EDO501      0.0000
      7 H        -120.0594   64.7518   26.1904 H      501  EDO501      0.0000
      8 H        -118.7006   61.8146   28.3426 H      501  EDO501      0.0000
      9 H        -120.1317   62.8760   28.4979 H      501  EDO501      0.0000
     10 H        -118.4621   64.6070   28.7535 H      501  EDO501      0.0000
@<TRIPOS>BOND
     1     1     2    1
     2     1     3    1
     3     1     5    1
     4     1     6    1
     5     2     7    1
     6     3     4    1
     7     3     8    1
     8     3     9    1
     9     4    10    1

