@<TRIPOS>MOLECULE
EDO_1_B_502
 10 9 0 0 0
SMALL
NO_CHARGES

@<TRIPOS>ATOM
      1 C1        -77.4310    2.9130    0.1090 C.3    502  EDO502      0.0000
      2 O1        -77.8540    3.0280    1.4720 O.3    502  EDO502      0.0000
      3 C2        -76.1550    2.0830    0.0400 C.3    502  EDO502      0.0000
      4 O2        -75.6540    2.0910   -1.3020 O.3    502  EDO502      0.0000
      5 H         -77.2511    3.9277   -0.3056 H      502  EDO502      0.0000
      6 H         -78.2342    2.4396   -0.4943 H      502  EDO502      0.0000
      7 H         -78.6406    3.5567    1.4930 H      502  EDO502      0.0000
      8 H         -76.3538    1.0385    0.3602 H      502  EDO502      0.0000
      9 H         -75.3856    2.5047    0.7211 H      502  EDO502      0.0000
     10 H         -74.8552    1.5807   -1.3214 H      502  EDO502      0.0000
@<TRIPOS>BOND
     1     1     2    1
     2     1     3    1
     3     1     5    1
     4     1     6    1
     5     2     7    1
     6     3     4    1
     7     3     8    1
     8     3     9    1
     9     4    10    1

