@<TRIPOS>MOLECULE
EDO_1_B_501
 10 9 0 0 0
SMALL
NO_CHARGES

@<TRIPOS>ATOM
      1 C1        -70.8280   -3.9430   26.7700 C.3    501  EDO501      0.0000
      2 O1        -71.8400   -4.9500   26.6660 O.3    501  EDO501      0.0000
      3 C2        -70.3420   -3.8750   28.2100 C.3    501  EDO501      0.0000
      4 O2        -71.4640   -3.6660   29.0730 O.3    501  EDO501      0.0000
      5 H         -71.2448   -2.9626   26.4557 H      501  EDO501      0.0000
      6 H         -69.9853   -4.1841   26.0884 H      501  EDO501      0.0000
      7 H         -72.1314   -4.9844   25.7647 H      501  EDO501      0.0000
      8 H         -69.6179   -3.0454   28.3439 H      501  EDO501      0.0000
      9 H         -69.8260   -4.8154   28.4966 H      501  EDO501      0.0000
     10 H         -72.1295   -4.2864   28.7971 H      501  EDO501      0.0000
@<TRIPOS>BOND
     1     1     2    1
     2     1     3    1
     3     1     5    1
     4     1     6    1
     5     2     7    1
     6     3     4    1
     7     3     8    1
     8     3     9    1
     9     4    10    1

