EDO_2_B_501
  -ISIS-            3D

 10  9  0  0  0  0  0  0  0  0  1 V2000
  -36.6080   71.2940   26.7700 C   0  0  0  0  0
  -35.2300   70.9220   26.6660 O   0  0  0  0  0
  -36.9110   71.6820   28.2100 C   0  0  0  0  0
  -36.5310   70.6050   29.0730 O   0  0  0  0  0
  -37.2453   70.4436   26.4484 H   0  0  0  0  0
  -36.8116   72.1398   26.0817 H   0  0  0  0  0
  -35.0606   70.3289   27.3895 H   0  0  0  0  0
  -37.9931   71.8989   28.3323 H   0  0  0  0  0
  -36.3503   72.5989   28.4900 H   0  0  0  0  0
  -36.7347   70.8543   29.9646 H   0  0  0  0  0
  1  2  1  0  0  0
  1  3  1  0  0  0
  1  5  1  0  0  0
  1  6  1  0  0  0
  2  7  1  0  0  0
  3  4  1  0  0  0
  3  8  1  0  0  0
  3  9  1  0  0  0
  4 10  1  0  0  0
M  END
$$$$
