EDO_1_B_501
  -ISIS-            3D

 10  9  0  0  0  0  0  0  0  0  1 V2000
  -70.8280   -3.9430   26.7700 C   0  0  0  0  0
  -71.8400   -4.9500   26.6660 O   0  0  0  0  0
  -70.3420   -3.8750   28.2100 C   0  0  0  0  0
  -71.4640   -3.6660   29.0730 O   0  0  0  0  0
  -71.2448   -2.9626   26.4557 H   0  0  0  0  0
  -69.9853   -4.1841   26.0884 H   0  0  0  0  0
  -72.1314   -4.9844   25.7647 H   0  0  0  0  0
  -69.6179   -3.0454   28.3439 H   0  0  0  0  0
  -69.8260   -4.8154   28.4966 H   0  0  0  0  0
  -72.1295   -4.2864   28.7971 H   0  0  0  0  0
  1  2  1  0  0  0
  1  3  1  0  0  0
  1  5  1  0  0  0
  1  6  1  0  0  0
  2  7  1  0  0  0
  3  4  1  0  0  0
  3  8  1  0  0  0
  3  9  1  0  0  0
  4 10  1  0  0  0
M  END
$$$$
