@<TRIPOS>MOLECULE
EDO_2_B_502
 10 9 0 0 0
SMALL
NO_CHARGES

@<TRIPOS>ATOM
      1 C1        -39.2450   62.1480    0.1090 C.3    502  EDO502      0.0000
      2 O1        -39.1330   61.7240    1.4720 O.3    502  EDO502      0.0000
      3 C2        -39.1640   63.6680    0.0400 C.3    502  EDO502      0.0000
      4 O2        -39.4210   64.0980   -1.3020 O.3    502  EDO502      0.0000
      5 H         -40.2006   61.7804   -0.3217 H      502  EDO502      0.0000
      6 H         -38.4220   61.6893   -0.4773 H      502  EDO502      0.0000
      7 H         -39.9858   61.7978    1.8798 H      502  EDO502      0.0000
      8 H         -38.1707   64.0328    0.3765 H      502  EDO502      0.0000
      9 H         -39.9255   64.1254    0.7053 H      502  EDO502      0.0000
     10 H         -38.6261   63.9905   -1.8082 H      502  EDO502      0.0000
@<TRIPOS>BOND
     1     1     2    1
     2     1     3    1
     3     1     5    1
     4     1     6    1
     5     2     7    1
     6     3     4    1
     7     3     8    1
     8     3     9    1
     9     4    10    1

