@<TRIPOS>MOLECULE
EDO_3_B_503
 10 9 0 0 0
SMALL
NO_CHARGES

@<TRIPOS>ATOM
      1 C1        -89.8250   19.6110   25.2070 C.3    503  EDO503      0.0000
      2 O1        -89.3530   19.6070   26.5590 O.3    503  EDO503      0.0000
      3 C2        -88.7040   20.0590   24.2780 C.3    503  EDO503      0.0000
      4 O2        -88.2920   21.3820   24.6400 O.3    503  EDO503      0.0000
      5 H         -90.6955   20.2947   25.1139 H      503  EDO503      0.0000
      6 H         -90.1694   18.5915   24.9336 H      503  EDO503      0.0000
      7 H         -90.1010   19.5236   27.1356 H      503  EDO503      0.0000
      8 H         -89.0497   20.0552   23.2230 H      503  EDO503      0.0000
      9 H         -87.8425   19.3617   24.3520 H      503  EDO503      0.0000
     10 H         -87.4741   21.5706   24.1987 H      503  EDO503      0.0000
@<TRIPOS>BOND
     1     1     2    1
     2     1     3    1
     3     1     5    1
     4     1     6    1
     5     2     7    1
     6     3     4    1
     7     3     8    1
     8     3     9    1
     9     4    10    1

