@<TRIPOS>MOLECULE
EDO_1_B_1003
 10 9 0 0 0
SMALL
NO_CHARGES

@<TRIPOS>ATOM
      1 C1          7.7650    3.8920  -12.3180 C.3   1003  EDO1003      0.0000
      2 O1          7.8230    2.9750  -11.2190 O.3   1003  EDO1003      0.0000
      3 C2          6.5090    4.7250  -12.1450 C.3   1003  EDO1003      0.0000
      4 O2          5.5890    3.9410  -11.3690 O.3   1003  EDO1003      0.0000
      5 H           7.7202    3.3204  -13.2693 H     1003  EDO1003      0.0000
      6 H           8.6735    4.5287  -12.3429 H     1003  EDO1003      0.0000
      7 H           8.5507    2.3852  -11.3641 H     1003  EDO1003      0.0000
      8 H           6.0533    4.9897  -13.1205 H     1003  EDO1003      0.0000
      9 H           6.7284    5.6697  -11.6046 H     1003  EDO1003      0.0000
     10 H           6.0363    3.6493  -10.5846 H     1003  EDO1003      0.0000
@<TRIPOS>BOND
     1     1     2    1
     2     1     3    1
     3     1     5    1
     4     1     6    1
     5     2     7    1
     6     3     4    1
     7     3     8    1
     8     3     9    1
     9     4    10    1

