@<TRIPOS>MOLECULE
EDO_1_B_1001
 10 9 0 0 0
SMALL
NO_CHARGES

@<TRIPOS>ATOM
      1 C1          1.3160   -2.5700  -17.6820 C.3   1001  EDO1001      0.0000
      2 O1          1.8760   -1.8090  -18.7510 O.3   1001  EDO1001      0.0000
      3 C2          1.5200   -1.8100  -16.3730 C.3   1001  EDO1001      0.0000
      4 O2          0.3010   -1.1560  -16.0250 O.3   1001  EDO1001      0.0000
      5 H           1.8359   -3.5505  -17.6315 H     1001  EDO1001      0.0000
      6 H           0.2428   -2.7769  -17.8749 H     1001  EDO1001      0.0000
      7 H           1.7597   -2.2965  -19.5556 H     1001  EDO1001      0.0000
      8 H           2.3533   -1.0799  -16.4355 H     1001  EDO1001      0.0000
      9 H           1.7730   -2.5206  -15.5588 H     1001  EDO1001      0.0000
     10 H           0.1842   -0.4326  -16.6275 H     1001  EDO1001      0.0000
@<TRIPOS>BOND
     1     1     2    1
     2     1     3    1
     3     1     5    1
     4     1     6    1
     5     2     7    1
     6     3     4    1
     7     3     8    1
     8     3     9    1
     9     4    10    1

