@<TRIPOS>MOLECULE
EDO_1_A_405
 10 9 0 0 0
SMALL
NO_CHARGES

@<TRIPOS>ATOM
      1 C1         24.3780   -2.9270  -10.7130 C.3    405  EDO405      0.0000
      2 O1         25.1150   -1.9800   -9.9400 O.3    405  EDO405      0.0000
      3 C2         23.0780   -3.3010   -9.9930 C.3    405  EDO405      0.0000
      4 O2         22.6030   -4.5500  -10.4790 O.3    405  EDO405      0.0000
      5 H          25.0114   -3.8297  -10.8398 H      405  EDO405      0.0000
      6 H          24.1737   -2.5282  -11.7287 H      405  EDO405      0.0000
      7 H          24.7826   -1.1129  -10.1312 H      405  EDO405      0.0000
      8 H          22.3083   -2.5152  -10.1430 H      405  EDO405      0.0000
      9 H          23.2614   -3.3871   -8.9006 H      405  EDO405      0.0000
     10 H          21.8335   -4.7926   -9.9807 H      405  EDO405      0.0000
@<TRIPOS>BOND
     1     1     2    1
     2     1     3    1
     3     1     5    1
     4     1     6    1
     5     2     7    1
     6     3     4    1
     7     3     8    1
     8     3     9    1
     9     4    10    1

