EDO_1_A_404
  -ISIS-            3D

 10  9  0  0  0  0  0  0  0  0  1 V2000
   20.8790   -8.2670   -9.1790 C   0  0  0  0  0
   20.0180   -8.9080   -8.2290 O   0  0  0  0  0
   21.7670   -9.3220   -9.8260 C   0  0  0  0  0
   22.3020  -10.1710   -8.8040 O   0  0  0  0  0
   21.4946   -7.5052   -8.6559 H   0  0  0  0  0
   20.2674   -7.7378   -9.9379 H   0  0  0  0  0
   20.5597   -9.5226   -7.7466 H   0  0  0  0  0
   22.5914   -8.8435  -10.3952 H   0  0  0  0  0
   21.1757   -9.9343  -10.5398 H   0  0  0  0  0
   22.8450  -10.8274   -9.2196 H   0  0  0  0  0
  1  2  1  0  0  0
  1  3  1  0  0  0
  1  5  1  0  0  0
  1  6  1  0  0  0
  2  7  1  0  0  0
  3  4  1  0  0  0
  3  8  1  0  0  0
  3  9  1  0  0  0
  4 10  1  0  0  0
M  END
$$$$
