@<TRIPOS>MOLECULE
EDO_1_A_406
 10 9 0 0 0
SMALL
NO_CHARGES

@<TRIPOS>ATOM
      1 C1         30.5580  -17.2660  -24.1630 C.3    406  EDO406      0.0000
      2 O1         31.8240  -16.7130  -24.5060 O.3    406  EDO406      0.0000
      3 C2         30.0450  -18.1260  -25.3190 C.3    406  EDO406      0.0000
      4 O2         28.8510  -18.7810  -24.8920 O.3    406  EDO406      0.0000
      5 H          29.8394  -16.4560  -23.9165 H      406  EDO406      0.0000
      6 H          30.6833  -17.8836  -23.2494 H      406  EDO406      0.0000
      7 H          31.6817  -15.9544  -25.0573 H      406  EDO406      0.0000
      8 H          30.8013  -18.8784  -25.6276 H      406  EDO406      0.0000
      9 H          29.8171  -17.4972  -26.2041 H      406  EDO406      0.0000
     10 H          29.0912  -19.5416  -24.3797 H      406  EDO406      0.0000
@<TRIPOS>BOND
     1     1     2    1
     2     1     3    1
     3     1     5    1
     4     1     6    1
     5     2     7    1
     6     3     4    1
     7     3     8    1
     8     3     9    1
     9     4    10    1

