@<TRIPOS>MOLECULE
EDO_1_B_1004
 10 9 0 0 0
SMALL
NO_CHARGES

@<TRIPOS>ATOM
      1 C1         17.0810   -0.3190   -3.8640 C.3   1004  EDO1004      0.0000
      2 O1         17.9920    0.2220   -4.8340 O.3   1004  EDO1004      0.0000
      3 C2         16.6850   -1.7490   -4.2270 C.3   1004  EDO1004      0.0000
      4 O2         17.7110   -2.6700   -3.8380 O.3   1004  EDO1004      0.0000
      5 H          16.1781    0.3266   -3.8449 H     1004  EDO1004      0.0000
      6 H          17.5315   -0.2722   -2.8506 H     1004  EDO1004      0.0000
      7 H          18.7614   -0.3335   -4.8264 H     1004  EDO1004      0.0000
      8 H          16.4860   -1.8374   -5.3157 H     1004  EDO1004      0.0000
      9 H          15.7456   -2.0189   -3.6986 H     1004  EDO1004      0.0000
     10 H          17.4289   -3.5445   -4.0711 H     1004  EDO1004      0.0000
@<TRIPOS>BOND
     1     1     2    1
     2     1     3    1
     3     1     5    1
     4     1     6    1
     5     2     7    1
     6     3     4    1
     7     3     8    1
     8     3     9    1
     9     4    10    1

