EDO_1_A_406
  -ISIS-            3D

 10  9  0  0  0  0  0  0  0  0  1 V2000
   30.5580  -17.2660  -24.1630 C   0  0  0  0  0
   31.8240  -16.7130  -24.5060 O   0  0  0  0  0
   30.0450  -18.1260  -25.3190 C   0  0  0  0  0
   28.8510  -18.7810  -24.8920 O   0  0  0  0  0
   29.8394  -16.4560  -23.9165 H   0  0  0  0  0
   30.6833  -17.8836  -23.2494 H   0  0  0  0  0
   31.6817  -15.9544  -25.0573 H   0  0  0  0  0
   30.8013  -18.8784  -25.6276 H   0  0  0  0  0
   29.8171  -17.4972  -26.2041 H   0  0  0  0  0
   29.0912  -19.5416  -24.3797 H   0  0  0  0  0
  1  2  1  0  0  0
  1  3  1  0  0  0
  1  5  1  0  0  0
  1  6  1  0  0  0
  2  7  1  0  0  0
  3  4  1  0  0  0
  3  8  1  0  0  0
  3  9  1  0  0  0
  4 10  1  0  0  0
M  END
$$$$
