@<TRIPOS>MOLECULE
1PE_1_B_2102
 38 37 0 0 0
SMALL
NO_CHARGES

@<TRIPOS>ATOM
      1 OH2        53.1380  -30.0480   -5.4840 O.3   2102  1PE2102      0.0000
      2 C12        53.4120  -29.1030   -4.4860 C.3   2102  1PE2102      0.0000
      3 C22        52.1860  -28.2120   -4.2910 C.3   2102  1PE2102      0.0000
      4 OH3        52.2790  -27.4890   -3.0940 O.3   2102  1PE2102      0.0000
      5 C13        51.0510  -28.8020   -1.5150 C.3   2102  1PE2102      0.0000
      6 C23        52.4120  -28.2600   -1.9340 C.3   2102  1PE2102      0.0000
      7 OH4        51.2140  -30.1380   -1.1410 O.3   2102  1PE2102      0.0000
      8 C14        50.2950  -32.2800   -0.6120 C.3   2102  1PE2102      0.0000
      9 C24        50.0250  -30.7870   -0.7900 C.3   2102  1PE2102      0.0000
     10 OH5        49.5110  -32.9860   -1.5230 O.3   2102  1PE2102      0.0000
     11 C15        49.5520  -34.0950   -3.6510 C.3   2102  1PE2102      0.0000
     12 C25        50.2300  -33.9030   -2.2970 C.3   2102  1PE2102      0.0000
     13 OH6        50.5180  -33.9850   -4.6600 O.3   2102  1PE2102      0.0000
     14 C16        51.0720  -33.8840   -7.0050 C.3   2102  1PE2102      0.0000
     15 C26        50.1060  -34.4030   -5.9360 C.3   2102  1PE2102      0.0000
     16 OH7        51.7590  -32.7450   -6.5540 O.3   2102  1PE2102      0.0000
     17 H          52.5839  -30.7389   -5.1383 H     2102  1PE2102      0.0000
     18 H          54.2769  -28.4848   -4.8048 H     2102  1PE2102      0.0000
     19 H          53.7423  -29.6572   -3.5904 H     2102  1PE2102      0.0000
     20 H          51.2578  -28.8185   -4.2926 H     2102  1PE2102      0.0000
     21 H          52.0946  -27.4985   -5.1358 H     2102  1PE2102      0.0000
     22 H          50.3123  -28.7286   -2.3380 H     2102  1PE2102      0.0000
     23 H          50.6471  -28.2138   -0.6644 H     2102  1PE2102      0.0000
     24 H          52.7830  -27.5910   -1.1289 H     2102  1PE2102      0.0000
     25 H          53.1764  -29.0496   -2.0049 H     2102  1PE2102      0.0000
     26 H          50.0135  -32.5974    0.4137 H     2102  1PE2102      0.0000
     27 H          51.3765  -32.5003   -0.7145 H     2102  1PE2102      0.0000
     28 H          49.2551  -30.6259   -1.5734 H     2102  1PE2102      0.0000
     29 H          49.6291  -30.3540    0.1525 H     2102  1PE2102      0.0000
     30 H          48.7659  -33.3280   -3.8118 H     2102  1PE2102      0.0000
     31 H          49.0612  -35.0900   -3.6883 H     2102  1PE2102      0.0000
     32 H          50.3190  -34.8661   -1.7532 H     2102  1PE2102      0.0000
     33 H          51.2626  -33.5352   -2.4741 H     2102  1PE2102      0.0000
     34 H          50.5259  -33.6551   -7.9444 H     2102  1PE2102      0.0000
     35 H          51.8140  -34.6758   -7.2443 H     2102  1PE2102      0.0000
     36 H          49.0941  -33.9952   -6.1458 H     2102  1PE2102      0.0000
     37 H          50.0299  -35.5094   -5.9738 H     2102  1PE2102      0.0000
     38 H          52.3546  -32.4609   -7.2360 H     2102  1PE2102      0.0000
@<TRIPOS>BOND
     1     1     2    1
     2     1    17    1
     3     2     3    1
     4     2    18    1
     5     2    19    1
     6     3     4    1
     7     3    20    1
     8     3    21    1
     9     4     6    1
    10     5     6    1
    11     5     7    1
    12     5    22    1
    13     5    23    1
    14     6    24    1
    15     6    25    1
    16     7     9    1
    17     8     9    1
    18     8    10    1
    19     8    26    1
    20     8    27    1
    21     9    28    1
    22     9    29    1
    23    10    12    1
    24    11    12    1
    25    11    13    1
    26    11    30    1
    27    11    31    1
    28    12    32    1
    29    12    33    1
    30    13    15    1
    31    14    15    1
    32    14    16    1
    33    14    34    1
    34    14    35    1
    35    15    36    1
    36    15    37    1
    37    16    38    1

