@<TRIPOS>MOLECULE
BU2_1_A_1309
 16 15 0 0 0
SMALL
NO_CHARGES

@<TRIPOS>ATOM
      1 C1         45.0200  -15.4640   -6.8650 C.3   1309  BU21309      0.0000
      2 O1         44.7710  -14.1120   -6.5730 O.3   1309  BU21309      0.0000
      3 C2         45.7520  -16.1440   -5.7050 C.3   1309  BU21309      0.0000
      4 C3         46.3840  -17.4560   -6.1970 C.3   1309  BU21309      0.0000
      5 O3         47.1020  -17.2420   -7.3930 O.3   1309  BU21309      0.0000
      6 C4         47.2900  -18.0470   -5.1120 C.3   1309  BU21309      0.0000
      7 H          45.6222  -15.4908   -7.7961 H     1309  BU21309      0.0000
      8 H          44.0659  -15.9884   -7.0897 H     1309  BU21309      0.0000
      9 H          44.0771  -14.0648   -5.9285 H     1309  BU21309      0.0000
     10 H          45.0548  -16.3325   -4.8596 H     1309  BU21309      0.0000
     11 H          46.5501  -15.4668   -5.3273 H     1309  BU21309      0.0000
     12 H          45.5675  -18.1839   -6.4077 H     1309  BU21309      0.0000
     13 H          47.8363  -16.6703   -7.2125 H     1309  BU21309      0.0000
     14 H          47.7412  -19.0089   -5.4408 H     1309  BU21309      0.0000
     15 H          46.7256  -18.2550   -4.1767 H     1309  BU21309      0.0000
     16 H          48.1270  -17.3644   -4.8477 H     1309  BU21309      0.0000
@<TRIPOS>BOND
     1     1     2    1
     2     1     3    1
     3     1     7    1
     4     1     8    1
     5     2     9    1
     6     3     4    1
     7     3    10    1
     8     3    11    1
     9     4     5    1
    10     4     6    1
    11     4    12    1
    12     5    13    1
    13     6    14    1
    14     6    15    1
    15     6    16    1

