@<TRIPOS>MOLECULE
BU2_1_B_2110
 16 15 0 0 0
SMALL
NO_CHARGES

@<TRIPOS>ATOM
      1 C1         17.5580  -13.2550   12.4140 C.3   2110  BU22110      0.0000
      2 O1         17.6220  -14.6470   12.2150 O.3   2110  BU22110      0.0000
      3 C2         18.3860  -12.8370   13.6340 C.3   2110  BU22110      0.0000
      4 C3         17.6140  -11.8190   14.4820 C.3   2110  BU22110      0.0000
      5 O3         17.9720  -11.9370   15.8390 O.3   2110  BU22110      0.0000
      6 C4         17.9040  -10.4050   13.9710 C.3   2110  BU22110      0.0000
      7 H          16.4887  -12.9858   12.5374 H     2110  BU22110      0.0000
      8 H          17.9077  -12.7231   11.5027 H     2110  BU22110      0.0000
      9 H          18.4880  -14.8668   11.8972 H     2110  BU22110      0.0000
     10 H          19.3829  -12.4516   13.3306 H     2110  BU22110      0.0000
     11 H          18.5814  -13.7406   14.2539 H     2110  BU22110      0.0000
     12 H          16.5181  -12.0010   14.3981 H     2110  BU22110      0.0000
     13 H          17.5683  -12.7179   16.1942 H     2110  BU22110      0.0000
     14 H          17.3335   -9.6430   14.5462 H     2110  BU22110      0.0000
     15 H          17.6207  -10.2854   12.9024 H     2110  BU22110      0.0000
     16 H          18.9810  -10.1438   14.0621 H     2110  BU22110      0.0000
@<TRIPOS>BOND
     1     1     2    1
     2     1     3    1
     3     1     7    1
     4     1     8    1
     5     2     9    1
     6     3     4    1
     7     3    10    1
     8     3    11    1
     9     4     5    1
    10     4     6    1
    11     4    12    1
    12     5    13    1
    13     6    14    1
    14     6    15    1
    15     6    16    1

