BU2_1_A_1309
  -ISIS-            3D

 16 15  0  0  0  0  0  0  0  0  1 V2000
   45.0200  -15.4640   -6.8650 C   0  0  0  0  0
   44.7710  -14.1120   -6.5730 O   0  0  0  0  0
   45.7520  -16.1440   -5.7050 C   0  0  0  0  0
   46.3840  -17.4560   -6.1970 C   0  0  0  0  0
   47.1020  -17.2420   -7.3930 O   0  0  0  0  0
   47.2900  -18.0470   -5.1120 C   0  0  0  0  0
   45.6222  -15.4908   -7.7961 H   0  0  0  0  0
   44.0659  -15.9884   -7.0897 H   0  0  0  0  0
   44.0771  -14.0648   -5.9285 H   0  0  0  0  0
   45.0548  -16.3325   -4.8596 H   0  0  0  0  0
   46.5501  -15.4668   -5.3273 H   0  0  0  0  0
   45.5675  -18.1839   -6.4077 H   0  0  0  0  0
   47.8363  -16.6703   -7.2125 H   0  0  0  0  0
   47.7412  -19.0089   -5.4408 H   0  0  0  0  0
   46.7256  -18.2550   -4.1767 H   0  0  0  0  0
   48.1270  -17.3644   -4.8477 H   0  0  0  0  0
  1  2  1  0  0  0
  1  3  1  0  0  0
  1  7  1  0  0  0
  1  8  1  0  0  0
  2  9  1  0  0  0
  3  4  1  0  0  0
  3 10  1  0  0  0
  3 11  1  0  0  0
  4  5  1  0  0  0
  4  6  1  0  0  0
  4 12  1  0  0  0
  5 13  1  0  0  0
  6 14  1  0  0  0
  6 15  1  0  0  0
  6 16  1  0  0  0
M  END
$$$$
