BU2_1_A_1310
  -ISIS-            3D

 16 15  0  0  0  0  0  0  0  0  1 V2000
   48.6890  -18.6500  -13.0260 C   0  0  0  0  0
   47.6600  -19.2720  -13.7630 O   0  0  0  0  0
   48.1590  -17.3990  -12.3150 C   0  0  0  0  0
   49.1920  -16.7700  -11.3730 C   0  0  0  0  0
   49.3750  -17.5780  -10.2380 O   0  0  0  0  0
   50.5240  -16.5770  -12.0970 C   0  0  0  0  0
   49.5012  -18.3864  -13.7350 H   0  0  0  0  0
   49.1112  -19.3741  -12.2958 H   0  0  0  0  0
   47.0968  -19.7384  -13.1599 H   0  0  0  0  0
   47.2402  -17.6502  -11.7399 H   0  0  0  0  0
   47.8523  -16.6516  -13.0806 H   0  0  0  0  0
   48.8198  -15.7677  -11.0548 H   0  0  0  0  0
   48.6485  -17.4408   -9.6443 H   0  0  0  0  0
   51.2298  -15.9835  -11.4750 H   0  0  0  0  0
   50.4011  -16.0256  -13.0549 H   0  0  0  0  0
   51.0362  -17.5374  -12.3195 H   0  0  0  0  0
  1  2  1  0  0  0
  1  3  1  0  0  0
  1  7  1  0  0  0
  1  8  1  0  0  0
  2  9  1  0  0  0
  3  4  1  0  0  0
  3 10  1  0  0  0
  3 11  1  0  0  0
  4  5  1  0  0  0
  4  6  1  0  0  0
  4 12  1  0  0  0
  5 13  1  0  0  0
  6 14  1  0  0  0
  6 15  1  0  0  0
  6 16  1  0  0  0
M  END
$$$$
