@<TRIPOS>MOLECULE
POL_1_R_604
 12 11 0 0 0
SMALL
NO_CHARGES

@<TRIPOS>ATOM
      1 O         -73.7650   29.2690   59.2180 O.3    604  POL604      0.0000
      2 C1        -73.5460   30.5870   59.6960 C.3    604  POL604      0.0000
      3 C2        -74.7320   31.3900   59.5580 C.3    604  POL604      0.0000
      4 C3        -74.6030   32.7430   60.2190 C.3    604  POL604      0.0000
      5 H         -74.2850   28.7961   59.8546 H      604  POL604      0.0000
      6 H         -72.7018   31.0320   59.1267 H      604  POL604      0.0000
      7 H         -73.2160   30.5351   60.7568 H      604  POL604      0.0000
      8 H         -75.6050   30.8639   60.0091 H      604  POL604      0.0000
      9 H         -74.9770   31.5281   58.4798 H      604  POL604      0.0000
     10 H         -75.5289   33.3481   60.0912 H      604  POL604      0.0000
     11 H         -73.7649   33.3360   59.7885 H      604  POL604      0.0000
     12 H         -74.4202   32.6562   61.3137 H      604  POL604      0.0000
@<TRIPOS>BOND
     1     1     2    1
     2     1     5    1
     3     2     3    1
     4     2     6    1
     5     2     7    1
     6     3     4    1
     7     3     8    1
     8     3     9    1
     9     4    10    1
    10     4    11    1
    11     4    12    1

