@<TRIPOS>MOLECULE
POL_1_R_603
 12 11 0 0 0
SMALL
NO_CHARGES

@<TRIPOS>ATOM
      1 O         -71.7650   30.2700   56.2490 O.3    603  POL603      0.0000
      2 C1        -72.3330   31.5670   56.2630 C.3    603  POL603      0.0000
      3 C2        -71.3920   32.5460   56.7460 C.3    603  POL603      0.0000
      4 C3        -71.9950   33.9300   56.8110 C.3    603  POL603      0.0000
      5 H         -72.4143   29.6596   55.9247 H      603  POL603      0.0000
      6 H         -73.2420   31.5520   56.9040 H      603  POL603      0.0000
      7 H         -72.6697   31.8244   55.2346 H      603  POL603      0.0000
      8 H         -70.4925   32.5689   56.0888 H      603  POL603      0.0000
      9 H         -71.0311   32.2601   57.7608 H      603  POL603      0.0000
     10 H         -71.2581   34.6768   57.1836 H      603  POL603      0.0000
     11 H         -72.8721   33.9705   57.4954 H      603  POL603      0.0000
     12 H         -72.3368   34.2821   55.8117 H      603  POL603      0.0000
@<TRIPOS>BOND
     1     1     2    1
     2     1     5    1
     3     2     3    1
     4     2     6    1
     5     2     7    1
     6     3     4    1
     7     3     8    1
     8     3     9    1
     9     4    10    1
    10     4    11    1
    11     4    12    1

