@<TRIPOS>MOLECULE
DMS_2_A_502
 10 9 0 0 0
SMALL
NO_CHARGES

@<TRIPOS>ATOM
      1 S          -2.4140  -18.9260   -8.1220 S.o    502  DMS502      0.0000
      2 O          -1.4830  -18.4460   -9.2070 O.2    502  DMS502      0.0000
      3 C1         -3.9580  -18.8110   -8.8430 C.3    502  DMS502      0.0000
      4 C2         -2.2200  -20.6010   -7.9730 C.3    502  DMS502      0.0000
      5 H          -4.7257  -19.2441   -8.1696 H      502  DMS502      0.0000
      6 H          -3.9812  -19.3507   -9.8119 H      502  DMS502      0.0000
      7 H          -4.2090  -17.7454   -9.0222 H      502  DMS502      0.0000
      8 H          -2.9899  -21.0158   -7.2907 H      502  DMS502      0.0000
      9 H          -1.2190  -20.8252   -7.5511 H      502  DMS502      0.0000
     10 H          -2.3076  -21.0968   -8.9615 H      502  DMS502      0.0000
@<TRIPOS>BOND
     1     1     2    2
     2     1     3    1
     3     1     4    1
     4     3     5    1
     5     3     6    1
     6     3     7    1
     7     4     8    1
     8     4     9    1
     9     4    10    1

