@<TRIPOS>MOLECULE
DMS_2_A_1005
 10 9 0 0 0
SMALL
NO_CHARGES

@<TRIPOS>ATOM
      1 S          -7.5050  -21.2610  -28.9220 S.o   1005  DMS1005      0.0000
      2 O          -7.0860  -22.5540  -28.3360 O.2   1005  DMS1005      0.0000
      3 C1         -8.0900  -21.6860  -30.5380 C.3   1005  DMS1005      0.0000
      4 C2         -5.9750  -20.4770  -29.3610 C.3   1005  DMS1005      0.0000
      5 H          -8.2672  -20.7630  -31.1270 H     1005  DMS1005      0.0000
      6 H          -9.0451  -22.2432  -30.4494 H     1005  DMS1005      0.0000
      7 H          -7.3478  -22.3210  -31.0644 H     1005  DMS1005      0.0000
      8 H          -6.1793  -19.5703  -29.9663 H     1005  DMS1005      0.0000
      9 H          -5.3368  -21.1724  -29.9443 H     1005  DMS1005      0.0000
     10 H          -5.4363  -20.1782  -28.4385 H     1005  DMS1005      0.0000
@<TRIPOS>BOND
     1     1     2    2
     2     1     3    1
     3     1     4    1
     4     3     5    1
     5     3     6    1
     6     3     7    1
     7     4     8    1
     8     4     9    1
     9     4    10    1

