DMS_1_A_1006
  -ISIS-            3D

 10  9  0  0  0  0  0  0  0  0  1 V2000
   21.0310   14.6250    7.9800 S   0  0  0  0  0
   22.4870   14.8320    7.9970 O   0  0  0  0  0
   20.7750   13.1960    8.9770 C   0  0  0  0  0
   20.7350   13.8160    6.4450 C   0  0  0  0  0
   19.7279   12.8444    8.8751 H   0  0  0  0  0
   20.9581   13.4544   10.0402 H   0  0  0  0  0
   21.4680   12.3807    8.6841 H   0  0  0  0  0
   19.6900   13.4460    6.4060 H   0  0  0  0  0
   21.4328   12.9648    6.3057 H   0  0  0  0  0
   20.8840   14.5380    5.6161 H   0  0  0  0  0
  1  2  2  0  0  0
  1  3  1  0  0  0
  1  4  1  0  0  0
  3  5  1  0  0  0
  3  6  1  0  0  0
  3  7  1  0  0  0
  4  8  1  0  0  0
  4  9  1  0  0  0
  4 10  1  0  0  0
M  END
$$$$
