@<TRIPOS>MOLECULE
DMS_2_A_1002
 10 9 0 0 0
SMALL
NO_CHARGES

@<TRIPOS>ATOM
      1 S          -7.0110  -28.0870  -21.4060 S.o   1002  DMS1002      0.0000
      2 O          -7.6580  -27.0220  -22.1660 O.2   1002  DMS1002      0.0000
      3 C1         -5.7380  -28.6950  -22.4800 C.3   1002  DMS1002      0.0000
      4 C2         -6.0240  -27.2790  -20.1870 C.3   1002  DMS1002      0.0000
      5 H          -5.0976  -29.4154  -21.9311 H     1002  DMS1002      0.0000
      6 H          -5.1133  -27.8571  -22.8521 H     1002  DMS1002      0.0000
      7 H          -6.2016  -29.2136  -23.3441 H     1002  DMS1002      0.0000
      8 H          -5.3833  -28.0223  -19.6701 H     1002  DMS1002      0.0000
      9 H          -6.6849  -26.7945  -19.4394 H     1002  DMS1002      0.0000
     10 H          -5.3829  -26.5060  -20.6583 H     1002  DMS1002      0.0000
@<TRIPOS>BOND
     1     1     2    2
     2     1     3    1
     3     1     4    1
     4     3     5    1
     5     3     6    1
     6     3     7    1
     7     4     8    1
     8     4     9    1
     9     4    10    1

