G82_1_A_501
  -ISIS-            3D

100102  0  0  0  0  0  0  0  0  1 V2000
  -20.6130   17.8670    0.3800 O   0  0  0  0  0
  -21.7550   17.9830    0.7850 C   0  0  0  0  0
  -22.7980   17.0770    0.2700 O   0  0  0  0  0
  -24.1250   17.5750    0.0200 C   0  0  0  0  0
  -24.9140   17.7850    1.3100 C   0  0  0  0  0
  -22.0410   19.0520    1.8210 C   0  0  0  0  0
  -20.8550   20.0090    1.9210 C   0  0  0  0  0
  -21.2760   21.4770    1.7990 C   0  0  0  0  0
  -20.0250   22.3240    1.6010 C   0  0  0  0  0
  -20.2740   23.8120    1.5160 C   0  0  0  0  0
  -21.0730   24.2660    0.2820 C   0  0  0  0  0
  -20.1460   25.1080   -0.6110 C   0  0  0  0  0
  -18.8910   25.0100    0.1330 N   0  0  0  0  0
  -18.9350   24.4260    1.3230 C   0  0  0  0  0
  -18.0740   24.3960    2.1800 O   0  0  0  0  0
  -21.9680   21.7940    3.0640 N   0  0  0  0  0
  -23.2640   22.1200    2.9850 C   0  0  0  0  0
  -23.8450   22.1930    1.8970 O   0  0  0  0  0
  -24.0220   22.4050    4.2520 C   0  0  0  0  0
  -25.1650   21.3850    4.2300 C   0  0  0  0  0
  -25.9740   21.1910    5.4980 C   0  0  0  0  0
  -25.6120   21.7690    6.7160 C   0  0  0  0  0
  -26.4160   21.5330    7.8300 C   0  0  0  0  0
  -27.5700   20.7400    7.7420 C   0  0  0  0  0
  -27.9400   20.1540    6.5390 C   0  0  0  0  0
  -27.1310   20.3890    5.4220 C   0  0  0  0  0
  -24.6320   23.7240    4.1460 N   0  0  0  0  0
  -23.9190   24.8550    4.0050 C   0  0  0  0  0
  -22.6990   24.8980    3.9510 O   0  0  0  0  0
  -24.7270   26.1210    3.8620 C   0  0  0  0  0
  -24.4940   26.6730    2.4410 C   0  0  0  0  0
  -25.1230   28.0460    2.1960 C   0  0  0  0  0
  -24.1300   28.9700    1.5080 C   0  0  0  0  0
  -23.9160   28.8510    0.0550 O   0  0  0  0  0
  -24.5800   29.6300   -0.9640 C   0  0  0  0  0
  -26.0740   29.7950   -0.6780 C   0  0  0  0  0
  -24.4150   28.8860   -2.2910 C   0  0  0  0  0
  -23.9250   31.0090   -1.0630 C   0  0  0  0  0
  -23.5000   29.8080    2.1600 O   0  0  0  0  0
  -24.3950   27.2060    4.7860 N   0  0  0  0  0
  -25.1830   27.5860    5.7970 C   0  0  0  0  0
  -26.2440   27.0270    6.0590 O   0  0  0  0  0
  -24.7490   28.7120    6.6270 O   0  0  0  0  0
  -25.6370   29.3890    7.5260 C   0  0  0  0  0
  -26.5200   30.3950    6.8070 C   0  0  0  0  0
  -27.4960   29.9690    5.8890 C   0  0  0  0  0
  -28.3080   30.9090    5.2410 C   0  0  0  0  0
  -28.1490   32.2760    5.5120 C   0  0  0  0  0
  -27.1860   32.7030    6.4330 C   0  0  0  0  0
  -26.3750   31.7620    7.0830 C   0  0  0  0  0
  -24.6641   16.8427   -0.6175 H   0  0  0  0  0
  -24.0847   18.5220   -0.5582 H   0  0  0  0  0
  -25.9923   17.9429    1.0885 H   0  0  0  0  0
  -24.5975   18.6610    1.9060 H   0  0  0  0  0
  -24.8519   16.8942    1.9722 H   0  0  0  0  0
  -22.2635   18.5890    2.8072 H   0  0  0  0  0
  -22.9355   19.6238    1.5046 H   0  0  0  0  0
  -20.1107   19.8158    1.1185 H   0  0  0  0  0
  -20.3105   19.8343    2.8779 H   0  0  0  0  0
  -21.9236   21.5896    0.9002 H   0  0  0  0  0
  -19.5016   21.9911    0.6735 H   0  0  0  0  0
  -19.3236   22.1185    2.4439 H   0  0  0  0  0
  -20.7353   24.1964    2.4535 H   0  0  0  0  0
  -21.9570   24.8679    0.5953 H   0  0  0  0  0
  -21.4634   23.3975   -0.2932 H   0  0  0  0  0
  -20.5025   26.1596   -0.6908 H   0  0  0  0  0
  -20.0627   24.6775   -1.6340 H   0  0  0  0  0
  -18.0102   25.4114   -0.2144 H   0  0  0  0  0
  -21.4687   21.7797    3.9633 H   0  0  0  0  0
  -23.3721   22.2967    5.1476 H   0  0  0  0  0
  -24.7286   20.3846    3.9943 H   0  0  0  0  0
  -25.8664   21.6122    3.3933 H   0  0  0  0  0
  -24.7182   22.4030    6.8259 H   0  0  0  0  0
  -26.1424   21.9820    8.8005 H   0  0  0  0  0
  -28.1887   20.5777    8.6413 H   0  0  0  0  0
  -28.8429   19.5251    6.4656 H   0  0  0  0  0
  -27.4135   19.9297    4.4588 H   0  0  0  0  0
  -25.6584   23.7853    4.1974 H   0  0  0  0  0
  -25.8129   25.8768    3.9398 H   0  0  0  0  0
  -24.8756   25.9452    1.6873 H   0  0  0  0  0
  -23.3959   26.7461    2.2612 H   0  0  0  0  0
  -25.4688   28.5187    3.1388 H   0  0  0  0  0
  -26.0310   27.9264    1.5665 H   0  0  0  0  0
  -26.5852   30.3803   -1.4727 H   0  0  0  0  0
  -26.2581   30.3263    0.2806 H   0  0  0  0  0
  -26.5932   28.8144   -0.6152 H   0  0  0  0  0
  -24.8894   29.4294   -3.1367 H   0  0  0  0  0
  -24.8727   27.8735   -2.2539 H   0  0  0  0  0
  -23.3435   28.7464   -2.5526 H   0  0  0  0  0
  -24.3671   31.6226   -1.8776 H   0  0  0  0  0
  -22.8349   30.9315   -1.2666 H   0  0  0  0  0
  -24.0382   31.5881   -0.1212 H   0  0  0  0  0
  -23.4984   27.6959    4.6706 H   0  0  0  0  0
  -25.0364   29.9014    8.3051 H   0  0  0  0  0
  -26.2769   28.6638    8.0700 H   0  0  0  0  0
  -27.6389   28.9001    5.6694 H   0  0  0  0  0
  -29.0717   30.5741    4.5186 H   0  0  0  0  0
  -28.7866   33.0162    4.9992 H   0  0  0  0  0
  -27.0652   33.7785    6.6474 H   0  0  0  0  0
  -25.6211   32.1116    7.8088 H   0  0  0  0  0
  1  2  2  0  0  0
  2  3  1  0  0  0
  2  6  1  0  0  0
  3  4  1  0  0  0
  4  5  1  0  0  0
  4 51  1  0  0  0
  4 52  1  0  0  0
  5 53  1  0  0  0
  5 54  1  0  0  0
  5 55  1  0  0  0
  6  7  1  0  0  0
  6 56  1  0  0  0
  6 57  1  0  0  0
  7  8  1  0  0  0
  7 58  1  0  0  0
  7 59  1  0  0  0
  8  9  1  0  0  0
  8 16  1  0  0  0
  8 60  1  0  0  0
  9 10  1  0  0  0
  9 61  1  0  0  0
  9 62  1  0  0  0
 10 11  1  0  0  0
 10 14  1  0  0  0
 10 63  1  0  0  0
 11 12  1  0  0  0
 11 64  1  0  0  0
 11 65  1  0  0  0
 12 13  1  0  0  0
 12 66  1  0  0  0
 12 67  1  0  0  0
 13 14  1  0  0  0
 13 68  1  0  0  0
 14 15  2  0  0  0
 16 17  1  0  0  0
 16 69  1  0  0  0
 17 18  2  0  0  0
 17 19  1  0  0  0
 19 20  1  0  0  0
 19 27  1  0  0  0
 19 70  1  0  0  0
 20 21  1  0  0  0
 20 71  1  0  0  0
 20 72  1  0  0  0
 21 22  2  0  0  0
 21 26  1  0  0  0
 22 23  1  0  0  0
 22 73  1  0  0  0
 23 24  2  0  0  0
 23 74  1  0  0  0
 24 25  1  0  0  0
 24 75  1  0  0  0
 25 26  2  0  0  0
 25 76  1  0  0  0
 26 77  1  0  0  0
 27 28  1  0  0  0
 27 78  1  0  0  0
 28 29  2  0  0  0
 28 30  1  0  0  0
 30 31  1  0  0  0
 30 40  1  0  0  0
 30 79  1  0  0  0
 31 32  1  0  0  0
 31 80  1  0  0  0
 31 81  1  0  0  0
 32 33  1  0  0  0
 32 82  1  0  0  0
 32 83  1  0  0  0
 33 34  1  0  0  0
 33 39  2  0  0  0
 34 35  1  0  0  0
 35 36  1  0  0  0
 35 37  1  0  0  0
 35 38  1  0  0  0
 36 84  1  0  0  0
 36 85  1  0  0  0
 36 86  1  0  0  0
 37 87  1  0  0  0
 37 88  1  0  0  0
 37 89  1  0  0  0
 38 90  1  0  0  0
 38 91  1  0  0  0
 38 92  1  0  0  0
 40 41  1  0  0  0
 40 93  1  0  0  0
 41 42  2  0  0  0
 41 43  1  0  0  0
 43 44  1  0  0  0
 44 45  1  0  0  0
 44 94  1  0  0  0
 44 95  1  0  0  0
 45 46  2  0  0  0
 45 50  1  0  0  0
 46 47  1  0  0  0
 46 96  1  0  0  0
 47 48  2  0  0  0
 47 97  1  0  0  0
 48 49  1  0  0  0
 48 98  1  0  0  0
 49 50  2  0  0  0
 49 99  1  0  0  0
 50100  1  0  0  0
M  END
$$$$
