@<TRIPOS>MOLECULE
G82_1_A_501
 100 102 0 0 0
SMALL
NO_CHARGES

@<TRIPOS>ATOM
      1 O88       -20.6130   17.8670    0.3800 O.2    501  G82501      0.0000
      2 C84       -21.7550   17.9830    0.7850 C.2    501  G82501      0.0000
      3 O86       -22.7980   17.0770    0.2700 O.3    501  G82501      0.0000
      4 C3        -24.1250   17.5750    0.0200 C.3    501  G82501      0.0000
      5 C5        -24.9140   17.7850    1.3100 C.3    501  G82501      0.0000
      6 C82       -22.0410   19.0520    1.8210 C.3    501  G82501      0.0000
      7 C63       -20.8550   20.0090    1.9210 C.3    501  G82501      0.0000
      8 C57       -21.2760   21.4770    1.7990 C.3    501  G82501      0.0000
      9 C59       -20.0250   22.3240    1.6010 C.3    501  G82501      0.0000
     10 C61       -20.2740   23.8120    1.5160 C.3    501  G82501      0.0000
     11 C73       -21.0730   24.2660    0.2820 C.3    501  G82501      0.0000
     12 C71       -20.1460   25.1080   -0.6110 C.3    501  G82501      0.0000
     13 N69       -18.8910   25.0100    0.1330 N.am   501  G82501      0.0000
     14 C65       -18.9350   24.4260    1.3230 C.2    501  G82501      0.0000
     15 O66       -18.0740   24.3960    2.1800 O.2    501  G82501      0.0000
     16 N49       -21.9680   21.7940    3.0640 N.am   501  G82501      0.0000
     17 C39       -23.2640   22.1200    2.9850 C.2    501  G82501      0.0000
     18 O47       -23.8450   22.1930    1.8970 O.2    501  G82501      0.0000
     19 C37       -24.0220   22.4050    4.2520 C.3    501  G82501      0.0000
     20 C41       -25.1650   21.3850    4.2300 C.3    501  G82501      0.0000
     21 C51       -25.9740   21.1910    5.4980 C.ar   501  G82501      0.0000
     22 C55       -25.6120   21.7690    6.7160 C.ar   501  G82501      0.0000
     23 C11       -26.4160   21.5330    7.8300 C.ar   501  G82501      0.0000
     24 C9        -27.5700   20.7400    7.7420 C.ar   501  G82501      0.0000
     25 C7        -27.9400   20.1540    6.5390 C.ar   501  G82501      0.0000
     26 C53       -27.1310   20.3890    5.4220 C.ar   501  G82501      0.0000
     27 N33       -24.6320   23.7240    4.1460 N.am   501  G82501      0.0000
     28 C31       -23.9190   24.8550    4.0050 C.2    501  G82501      0.0000
     29 O35       -22.6990   24.8980    3.9510 O.2    501  G82501      0.0000
     30 C23       -24.7270   26.1210    3.8620 C.3    501  G82501      0.0000
     31 C25       -24.4940   26.6730    2.4410 C.3    501  G82501      0.0000
     32 C15       -25.1230   28.0460    2.1960 C.3    501  G82501      0.0000
     33 C14       -24.1300   28.9700    1.5080 C.2    501  G82501      0.0000
     34 O2        -23.9160   28.8510    0.0550 O.3    501  G82501      0.0000
     35 C29       -24.5800   29.6300   -0.9640 C.3    501  G82501      0.0000
     36 C45       -26.0740   29.7950   -0.6780 C.3    501  G82501      0.0000
     37 C43       -24.4150   28.8860   -2.2910 C.3    501  G82501      0.0000
     38 C12       -23.9250   31.0090   -1.0630 C.3    501  G82501      0.0000
     39 O1        -23.5000   29.8080    2.1600 O.2    501  G82501      0.0000
     40 N21       -24.3950   27.2060    4.7860 N.am   501  G82501      0.0000
     41 C17       -25.1830   27.5860    5.7970 C.2    501  G82501      0.0000
     42 O19       -26.2440   27.0270    6.0590 O.2    501  G82501      0.0000
     43 O15       -24.7490   28.7120    6.6270 O.3    501  G82501      0.0000
     44 C13       -25.6370   29.3890    7.5260 C.3    501  G82501      0.0000
     45 C4        -26.5200   30.3950    6.8070 C.ar   501  G82501      0.0000
     46 C2        -27.4960   29.9690    5.8890 C.ar   501  G82501      0.0000
     47 C1        -28.3080   30.9090    5.2410 C.ar   501  G82501      0.0000
     48 C10       -28.1490   32.2760    5.5120 C.ar   501  G82501      0.0000
     49 C8        -27.1860   32.7030    6.4330 C.ar   501  G82501      0.0000
     50 C6        -26.3750   31.7620    7.0830 C.ar   501  G82501      0.0000
     51 H         -24.6641   16.8427   -0.6175 H      501  G82501      0.0000
     52 H         -24.0847   18.5220   -0.5582 H      501  G82501      0.0000
     53 H         -25.9923   17.9429    1.0885 H      501  G82501      0.0000
     54 H         -24.5975   18.6610    1.9060 H      501  G82501      0.0000
     55 H         -24.8519   16.8942    1.9722 H      501  G82501      0.0000
     56 H         -22.2635   18.5890    2.8072 H      501  G82501      0.0000
     57 H         -22.9355   19.6238    1.5046 H      501  G82501      0.0000
     58 H         -20.1107   19.8158    1.1185 H      501  G82501      0.0000
     59 H         -20.3105   19.8343    2.8779 H      501  G82501      0.0000
     60 H         -21.9236   21.5896    0.9002 H      501  G82501      0.0000
     61 H         -19.5016   21.9911    0.6735 H      501  G82501      0.0000
     62 H         -19.3236   22.1185    2.4439 H      501  G82501      0.0000
     63 H         -20.7353   24.1964    2.4535 H      501  G82501      0.0000
     64 H         -21.9570   24.8679    0.5953 H      501  G82501      0.0000
     65 H         -21.4634   23.3975   -0.2932 H      501  G82501      0.0000
     66 H         -20.5025   26.1596   -0.6908 H      501  G82501      0.0000
     67 H         -20.0627   24.6775   -1.6340 H      501  G82501      0.0000
     68 H         -18.0102   25.4114   -0.2144 H      501  G82501      0.0000
     69 H         -21.4687   21.7797    3.9633 H      501  G82501      0.0000
     70 H         -23.3721   22.2967    5.1476 H      501  G82501      0.0000
     71 H         -24.7286   20.3846    3.9943 H      501  G82501      0.0000
     72 H         -25.8664   21.6122    3.3933 H      501  G82501      0.0000
     73 H         -24.7182   22.4030    6.8259 H      501  G82501      0.0000
     74 H         -26.1424   21.9820    8.8005 H      501  G82501      0.0000
     75 H         -28.1887   20.5777    8.6413 H      501  G82501      0.0000
     76 H         -28.8429   19.5251    6.4656 H      501  G82501      0.0000
     77 H         -27.4135   19.9297    4.4588 H      501  G82501      0.0000
     78 H         -25.6584   23.7853    4.1974 H      501  G82501      0.0000
     79 H         -25.8129   25.8768    3.9398 H      501  G82501      0.0000
     80 H         -24.8756   25.9452    1.6873 H      501  G82501      0.0000
     81 H         -23.3959   26.7461    2.2612 H      501  G82501      0.0000
     82 H         -25.4688   28.5187    3.1388 H      501  G82501      0.0000
     83 H         -26.0310   27.9264    1.5665 H      501  G82501      0.0000
     84 H         -26.5852   30.3803   -1.4727 H      501  G82501      0.0000
     85 H         -26.2581   30.3263    0.2806 H      501  G82501      0.0000
     86 H         -26.5932   28.8144   -0.6152 H      501  G82501      0.0000
     87 H         -24.8894   29.4294   -3.1367 H      501  G82501      0.0000
     88 H         -24.8727   27.8735   -2.2539 H      501  G82501      0.0000
     89 H         -23.3435   28.7464   -2.5526 H      501  G82501      0.0000
     90 H         -24.3671   31.6226   -1.8776 H      501  G82501      0.0000
     91 H         -22.8349   30.9315   -1.2666 H      501  G82501      0.0000
     92 H         -24.0382   31.5881   -0.1212 H      501  G82501      0.0000
     93 H         -23.4984   27.6959    4.6706 H      501  G82501      0.0000
     94 H         -25.0364   29.9014    8.3051 H      501  G82501      0.0000
     95 H         -26.2769   28.6638    8.0700 H      501  G82501      0.0000
     96 H         -27.6389   28.9001    5.6694 H      501  G82501      0.0000
     97 H         -29.0717   30.5741    4.5186 H      501  G82501      0.0000
     98 H         -28.7866   33.0162    4.9992 H      501  G82501      0.0000
     99 H         -27.0652   33.7785    6.6474 H      501  G82501      0.0000
    100 H         -25.6211   32.1116    7.8088 H      501  G82501      0.0000
@<TRIPOS>BOND
     1     1     2    2
     2     2     3    1
     3     2     6    1
     4     3     4    1
     5     4     5    1
     6     4    51    1
     7     4    52    1
     8     5    53    1
     9     5    54    1
    10     5    55    1
    11     6     7    1
    12     6    56    1
    13     6    57    1
    14     7     8    1
    15     7    58    1
    16     7    59    1
    17     8     9    1
    18     8    16    1
    19     8    60    1
    20     9    10    1
    21     9    61    1
    22     9    62    1
    23    10    11    1
    24    10    14    1
    25    10    63    1
    26    11    12    1
    27    11    64    1
    28    11    65    1
    29    12    13    1
    30    12    66    1
    31    12    67    1
    32    13    14    1
    33    13    68    1
    34    14    15    2
    35    16    17    1
    36    16    69    1
    37    17    18    2
    38    17    19    1
    39    19    20    1
    40    19    27    1
    41    19    70    1
    42    20    21    1
    43    20    71    1
    44    20    72    1
    45    21    22   ar
    46    21    26   ar
    47    22    23   ar
    48    22    73    1
    49    23    24   ar
    50    23    74    1
    51    24    25   ar
    52    24    75    1
    53    25    26   ar
    54    25    76    1
    55    26    77    1
    56    27    28    1
    57    27    78    1
    58    28    29    2
    59    28    30    1
    60    30    31    1
    61    30    40    1
    62    30    79    1
    63    31    32    1
    64    31    80    1
    65    31    81    1
    66    32    33    1
    67    32    82    1
    68    32    83    1
    69    33    34    1
    70    33    39    2
    71    34    35    1
    72    35    36    1
    73    35    37    1
    74    35    38    1
    75    36    84    1
    76    36    85    1
    77    36    86    1
    78    37    87    1
    79    37    88    1
    80    37    89    1
    81    38    90    1
    82    38    91    1
    83    38    92    1
    84    40    41    1
    85    40    93    1
    86    41    42    2
    87    41    43    1
    88    43    44    1
    89    44    45    1
    90    44    94    1
    91    44    95    1
    92    45    46   ar
    93    45    50   ar
    94    46    47   ar
    95    46    96    1
    96    47    48   ar
    97    47    97    1
    98    48    49   ar
    99    48    98    1
   100    49    50   ar
   101    49    99    1
   102    50   100    1

