@<TRIPOS>MOLECULE
DMS_1_A_401
 10 9 0 0 0
SMALL
NO_CHARGES

@<TRIPOS>ATOM
      1 S           7.0770  -27.9160   21.5860 S.o    401  DMS401      0.0000
      2 O           6.3240  -27.1350   20.5440 O.2    401  DMS401      0.0000
      3 C1          7.9430  -26.7210   22.5510 C.3    401  DMS401      0.0000
      4 C2          5.8720  -28.3940   22.7970 C.3    401  DMS401      0.0000
      5 H           8.4047  -27.2109   23.4325 H      401  DMS401      0.0000
      6 H           7.2522  -25.9230   22.8926 H      401  DMS401      0.0000
      7 H           8.7452  -26.2638   21.9363 H      401  DMS401      0.0000
      8 H           6.3785  -28.8484   23.6730 H      401  DMS401      0.0000
      9 H           5.1839  -29.1427   22.3538 H      401  DMS401      0.0000
     10 H           5.2833  -27.5133   23.1263 H      401  DMS401      0.0000
@<TRIPOS>BOND
     1     1     2    2
     2     1     3    1
     3     1     4    1
     4     3     5    1
     5     3     6    1
     6     3     7    1
     7     4     8    1
     8     4     9    1
     9     4    10    1

