@<TRIPOS>MOLECULE
DMS_1_A_403
 10 9 0 0 0
SMALL
NO_CHARGES

@<TRIPOS>ATOM
      1 S           6.0990   -1.0340   -6.3200 S.o    403  DMS403      0.0000
      2 O           6.9550   -0.8090   -7.5270 O.2    403  DMS403      0.0000
      3 C1          7.1650   -0.8870   -4.9060 C.3    403  DMS403      0.0000
      4 C2          5.8150   -2.7790   -6.2160 C.3    403  DMS403      0.0000
      5 H           6.6148   -1.1770   -3.9875 H      403  DMS403      0.0000
      6 H           7.4971    0.1667   -4.8061 H      403  DMS403      0.0000
      7 H           8.0566   -1.5364   -5.0242 H      403  DMS403      0.0000
      8 H           5.2990   -3.0212   -5.2644 H      403  DMS403      0.0000
      9 H           6.7754   -3.3318   -6.2670 H      403  DMS403      0.0000
     10 H           5.1714   -3.0964   -7.0619 H      403  DMS403      0.0000
@<TRIPOS>BOND
     1     1     2    2
     2     1     3    1
     3     1     4    1
     4     3     5    1
     5     3     6    1
     6     3     7    1
     7     4     8    1
     8     4     9    1
     9     4    10    1

