DMS_2_A_1005
  -ISIS-            3D

 10  9  0  0  0  0  0  0  0  0  1 V2000
  -21.1150   14.6820   -8.0670 S   0  0  0  0  0
  -22.5780   14.7660   -8.1500 O   0  0  0  0  0
  -20.7230   13.2020   -8.9320 C   0  0  0  0  0
  -20.8160   14.0480   -6.4550 C   0  0  0  0  0
  -19.6568   12.9408   -8.7726 H   0  0  0  0  0
  -20.8897   13.3568  -10.0178 H   0  0  0  0  0
  -21.3626   12.3630   -8.5887 H   0  0  0  0  0
  -19.7478   13.7681   -6.3498 H   0  0  0  0  0
  -21.4503   13.1597   -6.2562 H   0  0  0  0  0
  -21.0513   14.8298   -5.7040 H   0  0  0  0  0
  1  2  2  0  0  0
  1  3  1  0  0  0
  1  4  1  0  0  0
  3  5  1  0  0  0
  3  6  1  0  0  0
  3  7  1  0  0  0
  4  8  1  0  0  0
  4  9  1  0  0  0
  4 10  1  0  0  0
M  END
$$$$
