@<TRIPOS>MOLECULE
DMS_1_A_1004
 10 9 0 0 0
SMALL
NO_CHARGES

@<TRIPOS>ATOM
      1 S           2.3580  -18.8890    8.2170 S.o   1004  DMS1004      0.0000
      2 O           3.6380  -18.7440    8.9580 O.2   1004  DMS1004      0.0000
      3 C1          1.1660  -18.0580    9.2140 C.3   1004  DMS1004      0.0000
      4 C2          1.8120  -20.5220    8.6550 C.3   1004  DMS1004      0.0000
      5 H           0.1430  -18.2802    8.8476 H     1004  DMS1004      0.0000
      6 H           1.3340  -16.9635    9.1487 H     1004  DMS1004      0.0000
      7 H           1.2536  -18.3688   10.2755 H     1004  DMS1004      0.0000
      8 H           0.7693  -20.6782    8.3098 H     1004  DMS1004      0.0000
      9 H           1.8648  -20.6734    9.7526 H     1004  DMS1004      0.0000
     10 H           2.4643  -21.2700    8.1595 H     1004  DMS1004      0.0000
@<TRIPOS>BOND
     1     1     2    2
     2     1     3    1
     3     1     4    1
     4     3     5    1
     5     3     6    1
     6     3     7    1
     7     4     8    1
     8     4     9    1
     9     4    10    1

