@<TRIPOS>MOLECULE
DMS_1_A_1002
 10 9 0 0 0
SMALL
NO_CHARGES

@<TRIPOS>ATOM
      1 S           7.1490  -28.1470   21.4270 S.o   1002  DMS1002      0.0000
      2 O           7.8680  -27.1620   22.2180 O.2   1002  DMS1002      0.0000
      3 C1          5.8600  -28.7640   22.4760 C.3   1002  DMS1002      0.0000
      4 C2          6.1780  -27.2460   20.2600 C.3   1002  DMS1002      0.0000
      5 H           5.1899  -29.4298   21.8947 H     1002  DMS1002      0.0000
      6 H           5.2698  -27.9242   22.8971 H     1002  DMS1002      0.0000
      7 H           6.3086  -29.3448   23.3079 H     1002  DMS1002      0.0000
      8 H           5.5045  -27.9398   19.7166 H     1002  DMS1002      0.0000
      9 H           6.8479  -26.7504   19.5277 H     1002  DMS1002      0.0000
     10 H           5.5716  -26.4735   20.7762 H     1002  DMS1002      0.0000
@<TRIPOS>BOND
     1     1     2    2
     2     1     3    1
     3     1     4    1
     4     3     5    1
     5     3     6    1
     6     3     7    1
     7     4     8    1
     8     4     9    1
     9     4    10    1

