@<TRIPOS>MOLECULE
DMS_1_A_1003
 10 9 0 0 0
SMALL
NO_CHARGES

@<TRIPOS>ATOM
      1 S           6.2070   -1.0210   -6.3060 S.o   1003  DMS1003      0.0000
      2 O           7.1800   -0.5600   -7.2960 O.2   1003  DMS1003      0.0000
      3 C1          7.2000   -1.2520   -4.8620 C.3   1003  DMS1003      0.0000
      4 C2          5.9210   -2.7070   -6.7150 C.3   1003  DMS1003      0.0000
      5 H           6.6083   -1.7676   -4.0782 H     1003  DMS1003      0.0000
      6 H           7.5216   -0.2638   -4.4734 H     1003  DMS1003      0.0000
      7 H           8.0995   -1.8568   -5.0996 H     1003  DMS1003      0.0000
      8 H           5.3405   -3.1969   -5.9068 H     1003  DMS1003      0.0000
      9 H           6.8823   -3.2438   -6.8530 H     1003  DMS1003      0.0000
     10 H           5.3382   -2.7643   -7.6572 H     1003  DMS1003      0.0000
@<TRIPOS>BOND
     1     1     2    2
     2     1     3    1
     3     1     4    1
     4     3     5    1
     5     3     6    1
     6     3     7    1
     7     4     8    1
     8     4     9    1
     9     4    10    1

