DMS_1_A_1004
  -ISIS-            3D

 10  9  0  0  0  0  0  0  0  0  1 V2000
    2.3580  -18.8890    8.2170 S   0  0  0  0  0
    3.6380  -18.7440    8.9580 O   0  0  0  0  0
    1.1660  -18.0580    9.2140 C   0  0  0  0  0
    1.8120  -20.5220    8.6550 C   0  0  0  0  0
    0.1430  -18.2802    8.8476 H   0  0  0  0  0
    1.3340  -16.9635    9.1487 H   0  0  0  0  0
    1.2536  -18.3688   10.2755 H   0  0  0  0  0
    0.7693  -20.6782    8.3098 H   0  0  0  0  0
    1.8648  -20.6734    9.7526 H   0  0  0  0  0
    2.4643  -21.2700    8.1595 H   0  0  0  0  0
  1  2  2  0  0  0
  1  3  1  0  0  0
  1  4  1  0  0  0
  3  5  1  0  0  0
  3  6  1  0  0  0
  3  7  1  0  0  0
  4  8  1  0  0  0
  4  9  1  0  0  0
  4 10  1  0  0  0
M  END
$$$$
