@<TRIPOS>MOLECULE
DMS_2_A_1005
 10 9 0 0 0
SMALL
NO_CHARGES

@<TRIPOS>ATOM
      1 S         -21.1150   14.6820   -8.0670 S.o   1005  DMS1005      0.0000
      2 O         -22.5780   14.7660   -8.1500 O.2   1005  DMS1005      0.0000
      3 C1        -20.7230   13.2020   -8.9320 C.3   1005  DMS1005      0.0000
      4 C2        -20.8160   14.0480   -6.4550 C.3   1005  DMS1005      0.0000
      5 H         -19.6568   12.9408   -8.7726 H     1005  DMS1005      0.0000
      6 H         -20.8897   13.3568  -10.0178 H     1005  DMS1005      0.0000
      7 H         -21.3626   12.3630   -8.5887 H     1005  DMS1005      0.0000
      8 H         -19.7478   13.7681   -6.3498 H     1005  DMS1005      0.0000
      9 H         -21.4503   13.1597   -6.2562 H     1005  DMS1005      0.0000
     10 H         -21.0513   14.8298   -5.7040 H     1005  DMS1005      0.0000
@<TRIPOS>BOND
     1     1     2    2
     2     1     3    1
     3     1     4    1
     4     3     5    1
     5     3     6    1
     6     3     7    1
     7     4     8    1
     8     4     9    1
     9     4    10    1

