@<TRIPOS>MOLECULE
DMS_2_A_403
 10 9 0 0 0
SMALL
NO_CHARGES

@<TRIPOS>ATOM
      1 S          -2.4380  -19.0230   -8.2860 S.o    403  DMS403      0.0000
      2 O          -3.7160  -18.6740   -8.9420 O.2    403  DMS403      0.0000
      3 C1         -1.2330  -18.0000   -9.0710 C.3    403  DMS403      0.0000
      4 C2         -1.9730  -20.5500   -9.0630 C.3    403  DMS403      0.0000
      5 H          -0.2139  -18.3224   -8.7749 H      403  DMS403      0.0000
      6 H          -1.3800  -16.9480   -8.7515 H      403  DMS403      0.0000
      7 H          -1.3310  -18.0570  -10.1748 H      403  DMS403      0.0000
      8 H          -0.9373  -20.8201   -8.7723 H      403  DMS403      0.0000
      9 H          -2.0345  -20.4606  -10.1673 H      403  DMS403      0.0000
     10 H          -2.6583  -21.3555   -8.7283 H      403  DMS403      0.0000
@<TRIPOS>BOND
     1     1     2    2
     2     1     3    1
     3     1     4    1
     4     3     5    1
     5     3     6    1
     6     3     7    1
     7     4     8    1
     8     4     9    1
     9     4    10    1

