@<TRIPOS>MOLECULE
DMS_1_A_404
 10 9 0 0 0
SMALL
NO_CHARGES

@<TRIPOS>ATOM
      1 S          21.2490   14.5540    7.9680 S.o    404  DMS404      0.0000
      2 O          22.6500   14.9580    7.7940 O.2    404  DMS404      0.0000
      3 C1         21.3100   13.1930    9.0930 C.3    404  DMS404      0.0000
      4 C2         20.8750   13.6510    6.5020 C.3    404  DMS404      0.0000
      5 H          20.3142   12.7080    9.1515 H      404  DMS404      0.0000
      6 H          21.5865   13.5619   10.1020 H      404  DMS404      0.0000
      7 H          22.0632   12.4480    8.7631 H      404  DMS404      0.0000
      8 H          19.8884   13.1550    6.6064 H      404  DMS404      0.0000
      9 H          21.6527   12.8840    6.3067 H      404  DMS404      0.0000
     10 H          20.8331   14.3484    5.6403 H      404  DMS404      0.0000
@<TRIPOS>BOND
     1     1     2    2
     2     1     3    1
     3     1     4    1
     4     3     5    1
     5     3     6    1
     6     3     7    1
     7     4     8    1
     8     4     9    1
     9     4    10    1

