@<TRIPOS>MOLECULE
DMS_2_A_401
 10 9 0 0 0
SMALL
NO_CHARGES

@<TRIPOS>ATOM
      1 S          -7.2350  -28.2870  -21.3460 S.o    401  DMS401      0.0000
      2 O          -7.8720  -27.3160  -22.2200 O.2    401  DMS401      0.0000
      3 C1         -5.9320  -29.0180  -22.3170 C.3    401  DMS401      0.0000
      4 C2         -6.2660  -27.3960  -20.1610 C.3    401  DMS401      0.0000
      5 H          -5.3244  -29.6930  -21.6801 H      401  DMS401      0.0000
      6 H          -5.2805  -28.2269  -22.7420 H      401  DMS401      0.0000
      7 H          -6.3754  -29.6074  -23.1456 H      401  DMS401      0.0000
      8 H          -5.6597  -28.1061  -19.5622 H      401  DMS401      0.0000
      9 H          -6.9390  -26.8350  -19.4807 H      401  DMS401      0.0000
     10 H          -5.5929  -26.6801  -20.6759 H      401  DMS401      0.0000
@<TRIPOS>BOND
     1     1     2    2
     2     1     3    1
     3     1     4    1
     4     3     5    1
     5     3     6    1
     6     3     7    1
     7     4     8    1
     8     4     9    1
     9     4    10    1

