EDO_1_A_9002
  -ISIS-            3D

 10  9  0  0  0  0  0  0  0  0  1 V2000
   -3.6710    0.7280   13.3440 C   0  0  0  0  0
   -2.8460    1.9040   13.4670 O   0  0  0  0  0
   -4.3740    0.4190   14.6850 C   0  0  0  0  0
   -5.3440    1.4110   15.0070 O   0  0  0  0  0
   -3.0483   -0.1351   13.0269 H   0  0  0  0  0
   -4.4227    0.8960   12.5457 H   0  0  0  0  0
   -1.9750    1.6338   13.7309 H   0  0  0  0  0
   -3.6302    0.3484   15.5057 H   0  0  0  0  0
   -4.8838   -0.5646   14.6262 H   0  0  0  0  0
   -4.9356    2.2540   14.8473 H   0  0  0  0  0
  1  2  1  0  0  0
  1  3  1  0  0  0
  1  5  1  0  0  0
  1  6  1  0  0  0
  2  7  1  0  0  0
  3  4  1  0  0  0
  3  8  1  0  0  0
  3  9  1  0  0  0
  4 10  1  0  0  0
M  END
$$$$
