@<TRIPOS>MOLECULE
EDO_1_A_9002
 10 9 0 0 0
SMALL
NO_CHARGES

@<TRIPOS>ATOM
      1 C1         -3.6710    0.7280   13.3440 C.3   9002  EDO9002      0.0000
      2 O1         -2.8460    1.9040   13.4670 O.3   9002  EDO9002      0.0000
      3 C2         -4.3740    0.4190   14.6850 C.3   9002  EDO9002      0.0000
      4 O2         -5.3440    1.4110   15.0070 O.3   9002  EDO9002      0.0000
      5 H          -3.0483   -0.1351   13.0269 H     9002  EDO9002      0.0000
      6 H          -4.4227    0.8960   12.5457 H     9002  EDO9002      0.0000
      7 H          -1.9750    1.6338   13.7309 H     9002  EDO9002      0.0000
      8 H          -3.6302    0.3484   15.5057 H     9002  EDO9002      0.0000
      9 H          -4.8838   -0.5646   14.6262 H     9002  EDO9002      0.0000
     10 H          -4.9356    2.2540   14.8473 H     9002  EDO9002      0.0000
@<TRIPOS>BOND
     1     1     2    1
     2     1     3    1
     3     1     5    1
     4     1     6    1
     5     2     7    1
     6     3     4    1
     7     3     8    1
     8     3     9    1
     9     4    10    1

