@<TRIPOS>MOLECULE
NNA_1_A_401
 112 115 0 0 0
SMALL
NO_CHARGES

@<TRIPOS>ATOM
      1 C1        -13.9720    4.2490   44.9980 C.2    401  NNA401      0.0000
      2 O2        -14.7810    3.6680   45.6560 O.2    401  NNA401      0.0000
      3 N3        -13.0550    5.2780   45.5730 N.am   401  NNA401      0.0000
      4 C4        -13.0860    5.6950   47.0140 C.3    401  NNA401      0.0000
      5 C5        -11.9150    6.6640   47.2070 C.3    401  NNA401      0.0000
      6 C6        -13.0340    4.4650   47.9650 C.3    401  NNA401      0.0000
      7 C7        -10.6080    5.8630   47.1200 C.3    401  NNA401      0.0000
      8 C8        -11.6440    3.9240   48.3640 C.3    401  NNA401      0.0000
      9 C9        -10.5260    4.9730   48.3630 C.3    401  NNA401      0.0000
     10 C10       -14.4190    6.4920   47.2100 C.3    401  NNA401      0.0000
     11 S11       -14.6670    7.8920   46.0180 S.o    401  NNA401      0.0000
     12 O12       -13.9740    7.3550   44.8240 O.2    401  NNA401      0.0000
     13 O13       -14.0010    9.0510   46.7430 O.2    401  NNA401      0.0000
     14 C14       -16.5120    8.0700   45.8360 C.3    401  NNA401      0.0000
     15 C15       -17.0980    6.7680   45.1830 C.3    401  NNA401      0.0000
     16 C16       -17.1380    8.2880   47.2530 C.3    401  NNA401      0.0000
     17 C17       -16.7480    9.3200   44.9270 C.3    401  NNA401      0.0000
     18 N18       -13.8570    3.9610   43.5420 N.am   401  NNA401      0.0000
     19 C19       -14.7440    2.9510   43.0080 C.3    401  NNA401      0.0000
     20 C20       -15.3140    3.3570   41.6280 C.3    401  NNA401      0.0000
     21 C21       -15.9540    2.1480   40.9130 C.3    401  NNA401      0.0000
     22 C22       -16.4140    4.3880   41.9490 C.3    401  NNA401      0.0000
     23 C23       -14.2480    3.9550   40.6850 C.3    401  NNA401      0.0000
     24 C24       -13.9540    1.6420   42.9550 C.2    401  NNA401      0.0000
     25 O25       -12.9130    1.5220   42.3690 O.2    401  NNA401      0.0000
     26 N26       -14.5360    0.4590   43.6770 N.am   401  NNA401      0.0000
     27 C27       -15.6760    0.4230   44.3640 C.3    401  NNA401      0.0000
     28 C28       -13.8000   -0.9340   43.6700 C.3    401  NNA401      0.0000
     29 C29       -14.2720   -1.6110   44.7490 C.3    401  NNA401      0.0000
     30 C30       -15.5490   -0.8630   45.2250 C.3    401  NNA401      0.0000
     31 C31       -14.5280   -1.3960   46.2730 C.3    401  NNA401      0.0000
     32 C32       -15.0440   -2.5550   47.1650 C.3    401  NNA401      0.0000
     33 C33       -13.6840   -0.2740   46.9220 C.3    401  NNA401      0.0000
     34 C34       -14.0900   -1.5530   42.2930 C.2    401  NNA401      0.0000
     35 O35       -15.2150   -1.6790   41.9530 O.2    401  NNA401      0.0000
     36 N36       -12.9830   -1.9210   41.3480 N.am   401  NNA401      0.0000
     37 C37       -13.3370   -2.4500   40.0510 C.3    401  NNA401      0.0000
     38 C38       -12.8850   -1.5220   38.8800 C.3    401  NNA401      0.0000
     39 C39       -12.3610   -0.1130   39.3640 C.3    401  NNA401      0.0000
     40 C40       -12.3740    1.0730   38.3310 C.3    401  NNA401      0.0000
     41 C41       -11.0480    1.1380   37.5090 C.3    401  NNA401      0.0000
     42 O42       -13.1800   -4.5410   41.0280 O.3    401  NNA401      0.0000
     43 C43       -12.6810   -3.7900   40.0130 C.3    401  NNA401      0.0000
     44 O44       -12.5400   -4.3570   37.7310 O.2    401  NNA401      0.0000
     45 N45       -14.3690   -5.3790   38.7660 N.am   401  NNA401      0.0000
     46 C46       -14.9470   -5.9440   37.5850 C.3    401  NNA401      0.0000
     47 C47       -15.7410   -4.8890   36.7810 C.3    401  NNA401      0.0000
     48 C48       -16.4870   -5.9710   37.5850 C.3    401  NNA401      0.0000
     49 C49       -13.1590   -4.4960   38.7650 C.2    401  NNA401      0.0000
     50 H         -12.4095    5.7454   44.9213 H      401  NNA401      0.0000
     51 H         -11.9872    7.1748   48.1943 H      401  NNA401      0.0000
     52 H         -11.8995    7.4636   46.4340 H      401  NNA401      0.0000
     53 H         -13.6691    3.6282   47.6087 H      401  NNA401      0.0000
     54 H         -13.5126    4.7906   48.9196 H      401  NNA401      0.0000
     55 H          -9.7428    6.5662   47.1113 H      401  NNA401      0.0000
     56 H         -10.5394    5.2592   46.1883 H      401  NNA401      0.0000
     57 H         -11.3675    3.1304   47.6296 H      401  NNA401      0.0000
     58 H         -11.6965    3.4173   49.3553 H      401  NNA401      0.0000
     59 H         -10.5937    5.5967   49.2841 H      401  NNA401      0.0000
     60 H          -9.5350    4.4638   48.4004 H      401  NNA401      0.0000
     61 H         -14.4962    6.9176   48.2317 H      401  NNA401      0.0000
     62 H         -15.2800    5.8079   47.0876 H      401  NNA401      0.0000
     63 H         -18.1914    6.8682   45.0098 H      401  NNA401      0.0000
     64 H         -16.9574    5.8658   45.8132 H      401  NNA401      0.0000
     65 H         -16.6332    6.5629   44.1961 H      401  NNA401      0.0000
     66 H         -18.2362    8.4460   47.1836 H      401  NNA401      0.0000
     67 H         -16.7139    9.1809   47.7615 H      401  NNA401      0.0000
     68 H         -16.9819    7.4167   47.9239 H      401  NNA401      0.0000
     69 H         -17.8331    9.4998   44.7663 H      401  NNA401      0.0000
     70 H         -16.2867    9.1946   43.9231 H      401  NNA401      0.0000
     71 H         -16.3273   10.2465   45.3749 H      401  NNA401      0.0000
     72 H         -13.1495    4.4444   42.9775 H      401  NNA401      0.0000
     73 H         -15.6157    2.8043   43.6796 H      401  NNA401      0.0000
     74 H         -16.4653    2.4502   39.9718 H      401  NNA401      0.0000
     75 H         -16.7194    1.6491   41.5477 H      401  NNA401      0.0000
     76 H         -15.2041    1.3756   40.6347 H      401  NNA401      0.0000
     77 H         -16.9111    4.7509   41.0217 H      401  NNA401      0.0000
     78 H         -16.0013    5.2857   42.4589 H      401  NNA401      0.0000
     79 H         -17.2157    3.9728   42.5998 H      401  NNA401      0.0000
     80 H         -14.6586    4.1265   39.6650 H      401  NNA401      0.0000
     81 H         -13.3662    3.2898   40.5697 H      401  NNA401      0.0000
     82 H         -13.8753    4.9419   41.0357 H      401  NNA401      0.0000
     83 H         -16.5634    0.3420   43.6967 H      401  NNA401      0.0000
     84 H         -15.8276    1.2845   45.0485 H      401  NNA401      0.0000
     85 H         -12.6994   -0.7928   43.7724 H      401  NNA401      0.0000
     86 H         -14.3774   -2.6747   44.5225 H      401  NNA401      0.0000
     87 H         -16.4789   -1.4342   45.2382 H      401  NNA401      0.0000
     88 H         -15.6941   -2.1599   47.9765 H      401  NNA401      0.0000
     89 H         -14.1879   -3.0885   47.6334 H      401  NNA401      0.0000
     90 H         -15.6308   -3.2962   46.5794 H      401  NNA401      0.0000
     91 H         -14.2656    0.2341   47.7225 H      401  NNA401      0.0000
     92 H         -13.3686    0.4968   46.1861 H      401  NNA401      0.0000
     93 H         -12.7653   -0.7018   47.3802 H      401  NNA401      0.0000
     94 H         -12.0038   -1.7853   41.6363 H      401  NNA401      0.0000
     95 H         -14.4400   -2.5871   39.9610 H      401  NNA401      0.0000
     96 H         -13.7417   -1.3758   38.1824 H      401  NNA401      0.0000
     97 H         -12.0713   -1.9950   38.2867 H      401  NNA401      0.0000
     98 H         -11.3432   -0.2177   39.8045 H      401  NNA401      0.0000
     99 H         -13.0268    0.2120   40.1952 H      401  NNA401      0.0000
    100 H         -12.4950    2.0368   38.8758 H      401  NNA401      0.0000
    101 H         -13.2481    0.9763   37.6481 H      401  NNA401      0.0000
    102 H         -11.0702    1.9752   36.7758 H      401  NNA401      0.0000
    103 H         -10.8797    0.1980   36.9374 H      401  NNA401      0.0000
    104 H         -10.1654    1.2959   38.1684 H      401  NNA401      0.0000
    105 H         -12.6381   -5.3108   41.1497 H      401  NNA401      0.0000
    106 H         -11.5719   -3.7181   40.0518 H      401  NNA401      0.0000
    107 H         -14.7843   -5.5303   39.6976 H      401  NNA401      0.0000
    108 H         -14.4358   -6.7200   37.0206 H      401  NNA401      0.0000
    109 H         -15.7371   -5.0245   35.7029 H      401  NNA401      0.0000
    110 H         -15.7741   -3.8877   37.2022 H      401  NNA401      0.0000
    111 H         -16.9745   -5.6265   38.4929 H      401  NNA401      0.0000
    112 H         -16.9406   -6.7632   36.9957 H      401  NNA401      0.0000
@<TRIPOS>BOND
     1     1     2    2
     2     1     3    1
     3     1    18    1
     4     3     4    1
     5     3    50    1
     6     4     5    1
     7     4     6    1
     8     4    10    1
     9     5     7    1
    10     5    51    1
    11     5    52    1
    12     6     8    1
    13     6    53    1
    14     6    54    1
    15     7     9    1
    16     7    55    1
    17     7    56    1
    18     8     9    1
    19     8    57    1
    20     8    58    1
    21     9    59    1
    22     9    60    1
    23    10    11    1
    24    10    61    1
    25    10    62    1
    26    11    12    2
    27    11    13    2
    28    11    14    1
    29    14    15    1
    30    14    16    1
    31    14    17    1
    32    15    63    1
    33    15    64    1
    34    15    65    1
    35    16    66    1
    36    16    67    1
    37    16    68    1
    38    17    69    1
    39    17    70    1
    40    17    71    1
    41    18    19    1
    42    18    72    1
    43    19    20    1
    44    19    24    1
    45    19    73    1
    46    20    21    1
    47    20    22    1
    48    20    23    1
    49    21    74    1
    50    21    75    1
    51    21    76    1
    52    22    77    1
    53    22    78    1
    54    22    79    1
    55    23    80    1
    56    23    81    1
    57    23    82    1
    58    24    25    2
    59    24    26    1
    60    26    27    1
    61    26    28    1
    62    27    30    1
    63    27    83    1
    64    27    84    1
    65    28    29    1
    66    28    34    1
    67    28    85    1
    68    29    30    1
    69    29    31    1
    70    29    86    1
    71    30    31    1
    72    30    87    1
    73    31    32    1
    74    31    33    1
    75    32    88    1
    76    32    89    1
    77    32    90    1
    78    33    91    1
    79    33    92    1
    80    33    93    1
    81    34    35    2
    82    34    36    1
    83    36    37    1
    84    36    94    1
    85    37    38    1
    86    37    43    1
    87    37    95    1
    88    38    39    1
    89    38    96    1
    90    38    97    1
    91    39    40    1
    92    39    98    1
    93    39    99    1
    94    40    41    1
    95    40   100    1
    96    40   101    1
    97    41   102    1
    98    41   103    1
    99    41   104    1
   100    42    43    1
   101    42   105    1
   102    43    49    1
   103    43   106    1
   104    44    49    2
   105    45    46    1
   106    45    49    1
   107    45   107    1
   108    46    47    1
   109    46    48    1
   110    46   108    1
   111    47    48    1
   112    47   109    1
   113    47   110    1
   114    48   111    1
   115    48   112    1

