@<TRIPOS>MOLECULE
NNA_1_B_401
 112 115 0 0 0
SMALL
NO_CHARGES

@<TRIPOS>ATOM
      1 C1         25.8790    4.6500   11.2620 C.2    401  NNA401      0.0000
      2 O2         26.7470    4.1540   10.6150 O.2    401  NNA401      0.0000
      3 N3         24.9200    5.6460   10.7080 N.am   401  NNA401      0.0000
      4 C4         25.0140    6.1280    9.3020 C.3    401  NNA401      0.0000
      5 C5         23.8480    7.0970    9.0980 C.3    401  NNA401      0.0000
      6 C6         25.0030    4.9520    8.3020 C.3    401  NNA401      0.0000
      7 C7         22.5430    6.3000    9.2090 C.3    401  NNA401      0.0000
      8 C8         23.6460    4.2400    8.2170 C.3    401  NNA401      0.0000
      9 C9         22.5030    5.2500    8.0900 C.3    401  NNA401      0.0000
     10 C10        26.3450    6.9320    9.1970 C.3    401  NNA401      0.0000
     11 S11        26.5540    8.3230   10.4240 S.o    401  NNA401      0.0000
     12 O12        25.8360    7.9310   11.6710 O.2    401  NNA401      0.0000
     13 O13        25.9430    9.4730    9.6900 O.2    401  NNA401      0.0000
     14 C14        28.4020    8.5160   10.6710 C.3    401  NNA401      0.0000
     15 C15        29.0490    7.1580   11.1380 C.3    401  NNA401      0.0000
     16 C16        29.0520    8.9810    9.3260 C.3    401  NNA401      0.0000
     17 C17        28.5490    9.6280   11.7600 C.3    401  NNA401      0.0000
     18 N18        25.7140    4.2840   12.6820 N.am   401  NNA401      0.0000
     19 C19        26.6320    3.3090   13.2050 C.3    401  NNA401      0.0000
     20 C20        27.1540    3.7210   14.6080 C.3    401  NNA401      0.0000
     21 C21        27.8290    2.4980   15.2740 C.3    401  NNA401      0.0000
     22 C22        28.1970    4.8700   14.4610 C.3    401  NNA401      0.0000
     23 C23        25.9790    4.1640   15.5080 C.3    401  NNA401      0.0000
     24 C24        25.8280    2.0070   13.2510 C.2    401  NNA401      0.0000
     25 O25        24.7790    1.9190   13.8100 O.2    401  NNA401      0.0000
     26 N26        26.3950    0.8050   12.5520 N.am   401  NNA401      0.0000
     27 C27        27.5390    0.7900   11.8900 C.3    401  NNA401      0.0000
     28 C28        25.6750   -0.6000   12.5360 C.3    401  NNA401      0.0000
     29 C29        26.2040   -1.2930   11.4960 C.3    401  NNA401      0.0000
     30 C30        27.4630   -0.5050   11.0430 C.3    401  NNA401      0.0000
     31 C31        26.4810   -1.0760    9.9820 C.3    401  NNA401      0.0000
     32 C32        26.9970   -2.2730    9.1340 C.3    401  NNA401      0.0000
     33 C33        25.5680   -0.0020    9.3410 C.3    401  NNA401      0.0000
     34 C34        25.8580   -1.2460   13.9190 C.2    401  NNA401      0.0000
     35 O35        26.9440   -1.3860   14.3660 O.2    401  NNA401      0.0000
     36 N36        24.6570   -1.6480   14.7160 N.am   401  NNA401      0.0000
     37 C37        24.8940   -2.2440   16.0220 C.3    401  NNA401      0.0000
     38 C38        24.1430   -1.3970   17.0720 C.3    401  NNA401      0.0000
     39 C39        24.9260   -0.0370   17.2270 C.3    401  NNA401      0.0000
     40 C40        24.0680    1.1500   17.7850 C.3    401  NNA401      0.0000
     41 C41        22.6400    0.7410   18.2600 C.3    401  NNA401      0.0000
     42 O42        25.0610   -4.3510   14.8840 O.3    401  NNA401      0.0000
     43 C43        24.4490   -3.7060   15.9340 C.3    401  NNA401      0.0000
     44 O44        24.1870   -4.2250   18.2520 O.2    401  NNA401      0.0000
     45 N45        26.0410   -5.2380   17.2950 N.am   401  NNA401      0.0000
     46 C46        26.4700   -5.8470   18.5360 C.3    401  NNA401      0.0000
     47 C47        27.5740   -4.9970   19.1760 C.3    401  NNA401      0.0000
     48 C48        27.9130   -6.3590   18.5510 C.3    401  NNA401      0.0000
     49 C49        24.8230   -4.3790   17.2740 C.2    401  NNA401      0.0000
     50 H          24.2218    6.0406   11.3513 H      401  NNA401      0.0000
     51 H          23.9158    7.5852    8.0989 H      401  NNA401      0.0000
     52 H          23.8374    7.9103    9.8563 H      401  NNA401      0.0000
     53 H          25.8048    4.2135    8.5141 H      401  NNA401      0.0000
     54 H          25.2370    5.3586    7.2900 H      401  NNA401      0.0000
     55 H          21.6783    6.9943    9.0924 H      401  NNA401      0.0000
     56 H          22.4216    5.8175   10.2035 H      401  NNA401      0.0000
     57 H          23.4956    3.6238    9.1339 H      401  NNA401      0.0000
     58 H          23.6359    3.5347    7.3542 H      401  NNA401      0.0000
     59 H          22.5528    5.7528    7.0965 H      401  NNA401      0.0000
     60 H          21.5276    4.7108    8.1202 H      401  NNA401      0.0000
     61 H          26.4693    7.3768    8.1880 H      401  NNA401      0.0000
     62 H          27.2050    6.2524    9.3393 H      401  NNA401      0.0000
     63 H          30.1203    7.2982   11.3990 H      401  NNA401      0.0000
     64 H          29.0142    6.3733   10.3546 H      401  NNA401      0.0000
     65 H          28.5444    6.7548   12.0410 H      401  NNA401      0.0000
     66 H          30.1462    9.1380    9.4431 H      401  NNA401      0.0000
     67 H          28.6228    9.9409    8.9659 H      401  NNA401      0.0000
     68 H          28.9165    8.2315    8.5169 H      401  NNA401      0.0000
     69 H          29.6194    9.8402   11.9716 H      401  NNA401      0.0000
     70 H          28.0827    9.3301   12.7243 H      401  NNA401      0.0000
     71 H          28.0846   10.5878   11.4451 H      401  NNA401      0.0000
     72 H          24.9480    4.6876   13.2325 H      401  NNA401      0.0000
     73 H          27.5207    3.1894   12.5513 H      401  NNA401      0.0000
     74 H          28.2636    2.7616   16.2640 H      401  NNA401      0.0000
     75 H          28.6630    2.1002   14.6545 H      401  NNA401      0.0000
     76 H          27.1212    1.6602   15.4519 H      401  NNA401      0.0000
     77 H          28.6124    5.1731   15.4478 H      401  NNA401      0.0000
     78 H          27.7411    5.7774   14.0072 H      401  NNA401      0.0000
     79 H          29.0561    4.5715   13.8198 H      401  NNA401      0.0000
     80 H          26.3285    4.3498   16.5483 H      401  NNA401      0.0000
     81 H          25.1713    3.4079   15.5860 H      401  NNA401      0.0000
     82 H          25.5169    5.1181   15.1743 H      401  NNA401      0.0000
     83 H          28.4165    0.7376   12.5732 H      401  NNA401      0.0000
     84 H          27.6804    1.6467   11.1968 H      401  NNA401      0.0000
     85 H          24.5828   -0.4611   12.3604 H      401  NNA401      0.0000
     86 H          26.3443   -2.3472   11.7448 H      401  NNA401      0.0000
     87 H          28.4113   -1.0454   11.0456 H      401  NNA401      0.0000
     88 H          27.5987   -1.9043    8.2743 H      401  NNA401      0.0000
     89 H          26.1392   -2.8570    8.7338 H      401  NNA401      0.0000
     90 H          27.6332   -2.9608    9.7329 H      401  NNA401      0.0000
     91 H          26.0867    0.4795    8.4830 H      401  NNA401      0.0000
     92 H          25.2803    0.7977   10.0567 H      401  NNA401      0.0000
     93 H          24.6342   -0.4712    8.9604 H      401  NNA401      0.0000
     94 H          23.7100   -1.4972   14.3427 H      401  NNA401      0.0000
     95 H          25.9762   -2.2402   16.2888 H      401  NNA401      0.0000
     96 H          24.1006   -1.8986   18.0621 H      401  NNA401      0.0000
     97 H          23.0997   -1.2407   16.7228 H      401  NNA401      0.0000
     98 H          25.3388    0.2785   16.2431 H      401  NNA401      0.0000
     99 H          25.8059   -0.2019   17.8915 H      401  NNA401      0.0000
    100 H          23.9662    1.9322   16.9981 H      401  NNA401      0.0000
    101 H          24.6126    1.6274   18.6324 H      401  NNA401      0.0000
    102 H          22.1292    1.6029   18.7456 H      401  NNA401      0.0000
    103 H          22.6690   -0.0787   19.0118 H      401  NNA401      0.0000
    104 H          21.9880    0.4258   17.4160 H      401  NNA401      0.0000
    105 H          24.6016   -5.1607   14.7013 H      401  NNA401      0.0000
    106 H          23.3426   -3.7412   15.8089 H      401  NNA401      0.0000
    107 H          26.5421   -5.3508   16.4008 H      401  NNA401      0.0000
    108 H          25.7641   -6.3355   19.2035 H      401  NNA401      0.0000
    109 H          27.5708   -4.9668   20.2622 H      401  NNA401      0.0000
    110 H          27.9044   -4.1282   18.6129 H      401  NNA401      0.0000
    111 H          28.4463   -6.3226   17.6052 H      401  NNA401      0.0000
    112 H          28.1186   -7.1601   19.2557 H      401  NNA401      0.0000
@<TRIPOS>BOND
     1     1     2    2
     2     1     3    1
     3     1    18    1
     4     3     4    1
     5     3    50    1
     6     4     5    1
     7     4     6    1
     8     4    10    1
     9     5     7    1
    10     5    51    1
    11     5    52    1
    12     6     8    1
    13     6    53    1
    14     6    54    1
    15     7     9    1
    16     7    55    1
    17     7    56    1
    18     8     9    1
    19     8    57    1
    20     8    58    1
    21     9    59    1
    22     9    60    1
    23    10    11    1
    24    10    61    1
    25    10    62    1
    26    11    12    2
    27    11    13    2
    28    11    14    1
    29    14    15    1
    30    14    16    1
    31    14    17    1
    32    15    63    1
    33    15    64    1
    34    15    65    1
    35    16    66    1
    36    16    67    1
    37    16    68    1
    38    17    69    1
    39    17    70    1
    40    17    71    1
    41    18    19    1
    42    18    72    1
    43    19    20    1
    44    19    24    1
    45    19    73    1
    46    20    21    1
    47    20    22    1
    48    20    23    1
    49    21    74    1
    50    21    75    1
    51    21    76    1
    52    22    77    1
    53    22    78    1
    54    22    79    1
    55    23    80    1
    56    23    81    1
    57    23    82    1
    58    24    25    2
    59    24    26    1
    60    26    27    1
    61    26    28    1
    62    27    30    1
    63    27    83    1
    64    27    84    1
    65    28    29    1
    66    28    34    1
    67    28    85    1
    68    29    30    1
    69    29    31    1
    70    29    86    1
    71    30    31    1
    72    30    87    1
    73    31    32    1
    74    31    33    1
    75    32    88    1
    76    32    89    1
    77    32    90    1
    78    33    91    1
    79    33    92    1
    80    33    93    1
    81    34    35    2
    82    34    36    1
    83    36    37    1
    84    36    94    1
    85    37    38    1
    86    37    43    1
    87    37    95    1
    88    38    39    1
    89    38    96    1
    90    38    97    1
    91    39    40    1
    92    39    98    1
    93    39    99    1
    94    40    41    1
    95    40   100    1
    96    40   101    1
    97    41   102    1
    98    41   103    1
    99    41   104    1
   100    42    43    1
   101    42   105    1
   102    43    49    1
   103    43   106    1
   104    44    49    2
   105    45    46    1
   106    45    49    1
   107    45   107    1
   108    46    47    1
   109    46    48    1
   110    46   108    1
   111    47    48    1
   112    47   109    1
   113    47   110    1
   114    48   111    1
   115    48   112    1

