DMS_1_A_1003
  -ISIS-            3D

 10  9  0  0  0  0  0  0  0  0  1 V2000
    6.0440   -0.9760   -6.5390 S   0  0  0  0  0
    6.8060   -0.7850   -7.7830 O   0  0  0  0  0
    7.2500   -1.0050   -5.2500 C   0  0  0  0  0
    5.5690   -2.6660   -6.5600 C   0  0  0  0  0
    6.7703   -1.2981   -4.2939 H   0  0  0  0  0
    7.6907    0.0063   -5.1343 H   0  0  0  0  0
    8.0576   -1.7262   -5.4920 H   0  0  0  0  0
    5.1130   -2.9404   -5.5869 H   0  0  0  0  0
    6.4496   -3.3144   -6.7475 H   0  0  0  0  0
    4.8219   -2.8305   -7.3633 H   0  0  0  0  0
  1  2  2  0  0  0
  1  3  1  0  0  0
  1  4  1  0  0  0
  3  5  1  0  0  0
  3  6  1  0  0  0
  3  7  1  0  0  0
  4  8  1  0  0  0
  4  9  1  0  0  0
  4 10  1  0  0  0
M  END
$$$$
