DMS_1_A_1002
  -ISIS-            3D

 10  9  0  0  0  0  0  0  0  0  1 V2000
    7.7740  -28.3830   20.9410 S   0  0  0  0  0
    8.2990  -27.5130   21.9650 O   0  0  0  0  0
    6.5020  -29.2950   21.7880 C   0  0  0  0  0
    6.7540  -27.3730   19.9390 C   0  0  0  0  0
    5.9175  -29.8901   21.0568 H   0  0  0  0  0
    5.8219  -28.6038   22.3274 H   0  0  0  0  0
    6.9696  -29.9862   22.5189 H   0  0  0  0  0
    6.1731  -28.0039   19.2357 H   0  0  0  0  0
    7.3867  -26.6762   19.3519 H   0  0  0  0  0
    6.0538  -26.7819   20.5648 H   0  0  0  0  0
  1  2  2  0  0  0
  1  3  1  0  0  0
  1  4  1  0  0  0
  3  5  1  0  0  0
  3  6  1  0  0  0
  3  7  1  0  0  0
  4  8  1  0  0  0
  4  9  1  0  0  0
  4 10  1  0  0  0
M  END
$$$$
