@<TRIPOS>MOLECULE
DMS_1_A_1002
 10 9 0 0 0
SMALL
NO_CHARGES

@<TRIPOS>ATOM
      1 S           7.7740  -28.3830   20.9410 S.o   1002  DMS1002      0.0000
      2 O           8.2990  -27.5130   21.9650 O.2   1002  DMS1002      0.0000
      3 C1          6.5020  -29.2950   21.7880 C.3   1002  DMS1002      0.0000
      4 C2          6.7540  -27.3730   19.9390 C.3   1002  DMS1002      0.0000
      5 H           5.9175  -29.8901   21.0568 H     1002  DMS1002      0.0000
      6 H           5.8219  -28.6038   22.3274 H     1002  DMS1002      0.0000
      7 H           6.9696  -29.9862   22.5189 H     1002  DMS1002      0.0000
      8 H           6.1731  -28.0039   19.2357 H     1002  DMS1002      0.0000
      9 H           7.3867  -26.6762   19.3519 H     1002  DMS1002      0.0000
     10 H           6.0538  -26.7819   20.5648 H     1002  DMS1002      0.0000
@<TRIPOS>BOND
     1     1     2    2
     2     1     3    1
     3     1     4    1
     4     3     5    1
     5     3     6    1
     6     3     7    1
     7     4     8    1
     8     4     9    1
     9     4    10    1

