@<TRIPOS>MOLECULE
DMS_2_A_405
 10 9 0 0 0
SMALL
NO_CHARGES

@<TRIPOS>ATOM
      1 S           5.3940  -19.6580   -7.0810 S.o    405  DMS405      0.0000
      2 O           4.7490  -18.8870   -5.9700 O.2    405  DMS405      0.0000
      3 C1          4.2810  -19.7450   -8.5360 C.3    405  DMS405      0.0000
      4 C2          5.4160  -21.3900   -6.5280 C.3    405  DMS405      0.0000
      5 H           4.7297  -20.4083   -9.3034 H      405  DMS405      0.0000
      6 H           4.1535  -18.7270   -8.9576 H      405  DMS405      0.0000
      7 H           3.2933  -20.1445   -8.2271 H      405  DMS405      0.0000
      8 H           5.8271  -22.0297   -7.3355 H      405  DMS405      0.0000
      9 H           4.3857  -21.7189   -6.2813 H      405  DMS405      0.0000
     10 H           6.0579  -21.4790   -5.6278 H      405  DMS405      0.0000
@<TRIPOS>BOND
     1     1     2    2
     2     1     3    1
     3     1     4    1
     4     3     5    1
     5     3     6    1
     6     3     7    1
     7     4     8    1
     8     4     9    1
     9     4    10    1

