DMS_1_A_402
  -ISIS-            3D

 10  9  0  0  0  0  0  0  0  0  1 V2000
   -4.1020  -14.3580   34.0090 S   0  0  0  0  0
   -4.1620  -13.2050   33.0520 O   0  0  0  0  0
   -4.6550  -15.9190   33.2450 C   0  0  0  0  0
   -2.4030  -14.9130   34.3310 C   0  0  0  0  0
   -4.5642  -16.7472   33.9771 H   0  0  0  0  0
   -4.0405  -16.1403   32.3482 H   0  0  0  0  0
   -5.7174  -15.8169   32.9427 H   0  0  0  0  0
   -2.4168  -15.7867   35.0139 H   0  0  0  0  0
   -1.8374  -14.0878   34.8100 H   0  0  0  0  0
   -1.9068  -15.1888   33.3777 H   0  0  0  0  0
  1  2  2  0  0  0
  1  3  1  0  0  0
  1  4  1  0  0  0
  3  5  1  0  0  0
  3  6  1  0  0  0
  3  7  1  0  0  0
  4  8  1  0  0  0
  4  9  1  0  0  0
  4 10  1  0  0  0
M  END
$$$$
