@<TRIPOS>MOLECULE
DMS_1_A_402
 10 9 0 0 0
SMALL
NO_CHARGES

@<TRIPOS>ATOM
      1 S          -4.1020  -14.3580   34.0090 S.o    402  DMS402      0.0000
      2 O          -4.1620  -13.2050   33.0520 O.2    402  DMS402      0.0000
      3 C1         -4.6550  -15.9190   33.2450 C.3    402  DMS402      0.0000
      4 C2         -2.4030  -14.9130   34.3310 C.3    402  DMS402      0.0000
      5 H          -4.5642  -16.7472   33.9771 H      402  DMS402      0.0000
      6 H          -4.0405  -16.1403   32.3482 H      402  DMS402      0.0000
      7 H          -5.7174  -15.8169   32.9427 H      402  DMS402      0.0000
      8 H          -2.4168  -15.7867   35.0139 H      402  DMS402      0.0000
      9 H          -1.8374  -14.0878   34.8100 H      402  DMS402      0.0000
     10 H          -1.9068  -15.1888   33.3777 H      402  DMS402      0.0000
@<TRIPOS>BOND
     1     1     2    2
     2     1     3    1
     3     1     4    1
     4     3     5    1
     5     3     6    1
     6     3     7    1
     7     4     8    1
     8     4     9    1
     9     4    10    1

