DMS_2_A_403
  -ISIS-            3D

 10  9  0  0  0  0  0  0  0  0  1 V2000
   -7.6290   -0.8980    4.5460 S   0  0  0  0  0
   -7.7660    0.5780    4.1600 O   0  0  0  0  0
   -7.0050   -1.1180    6.2770 C   0  0  0  0  0
   -6.1610   -1.7870    4.0360 C   0  0  0  0  0
   -6.9175   -2.1954    6.5259 H   0  0  0  0  0
   -7.7361   -0.6571    6.9726 H   0  0  0  0  0
   -6.0276   -0.6098    6.4082 H   0  0  0  0  0
   -6.1651   -2.8192    4.4420 H   0  0  0  0  0
   -5.2418   -1.2535    4.3534 H   0  0  0  0  0
   -6.1562   -1.8527    2.9286 H   0  0  0  0  0
  1  2  2  0  0  0
  1  3  1  0  0  0
  1  4  1  0  0  0
  3  5  1  0  0  0
  3  6  1  0  0  0
  3  7  1  0  0  0
  4  8  1  0  0  0
  4  9  1  0  0  0
  4 10  1  0  0  0
M  END
$$$$
