@<TRIPOS>MOLECULE
DMS_2_A_401
 10 9 0 0 0
SMALL
NO_CHARGES

@<TRIPOS>ATOM
      1 S          -7.1220  -28.1990  -21.3190 S.o    401  DMS401      0.0000
      2 O          -8.0610  -27.2800  -22.0710 O.2    401  DMS401      0.0000
      3 C1         -6.1160  -27.1200  -20.2890 C.3    401  DMS401      0.0000
      4 C2         -5.9280  -28.9740  -22.4400 C.3    401  DMS401      0.0000
      5 H          -5.3714  -27.7269  -19.7345 H      401  DMS401      0.0000
      6 H          -6.7671  -26.5896  -19.5643 H      401  DMS401      0.0000
      7 H          -5.5894  -26.3778  -20.9234 H      401  DMS401      0.0000
      8 H          -5.1990  -29.5668  -21.8507 H      401  DMS401      0.0000
      9 H          -5.3925  -28.1912  -23.0152 H      401  DMS401      0.0000
     10 H          -6.4659  -29.6445  -23.1410 H      401  DMS401      0.0000
@<TRIPOS>BOND
     1     1     2    2
     2     1     3    1
     3     1     4    1
     4     3     5    1
     5     3     6    1
     6     3     7    1
     7     4     8    1
     8     4     9    1
     9     4    10    1

