EDO_1_A_308
  -ISIS-            3D

 10  9  0  0  0  0  0  0  0  0  1 V2000
   13.0400   10.0090   -9.5190 C   0  0  0  0  0
   11.7460    9.7340   -8.9700 O   0  0  0  0  0
   14.0410   10.2000   -8.3860 C   0  0  0  0  0
   13.6290   11.2940   -7.5590 O   0  0  0  0  0
   12.9869   10.9147  -10.1586 H   0  0  0  0  0
   13.3431    9.1628  -10.1693 H   0  0  0  0  0
   11.6260   10.3380   -8.2459 H   0  0  0  0  0
   15.0595   10.3867   -8.7873 H   0  0  0  0  0
   14.1000    9.2825   -7.7643 H   0  0  0  0  0
   14.0096   12.0919   -7.9019 H   0  0  0  0  0
  1  2  1  0  0  0
  1  3  1  0  0  0
  1  5  1  0  0  0
  1  6  1  0  0  0
  2  7  1  0  0  0
  3  4  1  0  0  0
  3  8  1  0  0  0
  3  9  1  0  0  0
  4 10  1  0  0  0
M  END
$$$$
