@<TRIPOS>MOLECULE
EDO_1_A_307
 10 9 0 0 0
SMALL
NO_CHARGES

@<TRIPOS>ATOM
      1 C1         12.4580   -6.4490   16.5750 C.3    307  EDO307      0.0000
      2 O1         13.6660   -5.7890   16.9710 O.3    307  EDO307      0.0000
      3 C2         12.1300   -6.0900   15.1310 C.3    307  EDO307      0.0000
      4 O2         11.0960   -6.9570   14.6510 O.3    307  EDO307      0.0000
      5 H          11.6253   -6.1754   17.2565 H      307  EDO307      0.0000
      6 H          12.6138   -7.5438   16.6698 H      307  EDO307      0.0000
      7 H          13.4471   -4.9145   17.2646 H      307  EDO307      0.0000
      8 H          13.0311   -6.2102   14.4925 H      307  EDO307      0.0000
      9 H          11.8004   -5.0325   15.0551 H      307  EDO307      0.0000
     10 H          10.9532   -6.7696   13.7325 H      307  EDO307      0.0000
@<TRIPOS>BOND
     1     1     2    1
     2     1     3    1
     3     1     5    1
     4     1     6    1
     5     2     7    1
     6     3     4    1
     7     3     8    1
     8     3     9    1
     9     4    10    1

