@<TRIPOS>MOLECULE
EDO_1_A_309
 10 9 0 0 0
SMALL
NO_CHARGES

@<TRIPOS>ATOM
      1 C1         19.0230   -6.2410   18.4920 C.3    309  EDO309      0.0000
      2 O1         17.8080   -6.8450   18.9510 O.3    309  EDO309      0.0000
      3 C2         19.4330   -6.8690   17.1660 C.3    309  EDO309      0.0000
      4 O2         20.6100   -6.2170   16.6720 O.3    309  EDO309      0.0000
      5 H          19.8215   -6.3847   19.2504 H      309  EDO309      0.0000
      6 H          18.8653   -5.1484   18.3707 H      309  EDO309      0.0000
      7 H          17.5969   -6.4796   19.8002 H      309  EDO309      0.0000
      8 H          18.6148   -6.7908   16.4191 H      309  EDO309      0.0000
      9 H          19.6522   -7.9482   17.3024 H      309  EDO309      0.0000
     10 H          20.3437   -5.4639   16.1614 H      309  EDO309      0.0000
@<TRIPOS>BOND
     1     1     2    1
     2     1     3    1
     3     1     5    1
     4     1     6    1
     5     2     7    1
     6     3     4    1
     7     3     8    1
     8     3     9    1
     9     4    10    1

