@<TRIPOS>MOLECULE
EDO_1_A_306
 10 9 0 0 0
SMALL
NO_CHARGES

@<TRIPOS>ATOM
      1 C1         33.8490   -2.2750   -0.9240 C.3    306  EDO306      0.0000
      2 O1         34.3270   -1.3760    0.0830 O.3    306  EDO306      0.0000
      3 C2         33.9640   -3.7100   -0.4220 C.3    306  EDO306      0.0000
      4 O2         33.1420   -3.8790    0.7380 O.3    306  EDO306      0.0000
      5 H          34.4526   -2.1360   -1.8445 H      306  EDO306      0.0000
      6 H          32.7978   -2.0249   -1.1783 H      306  EDO306      0.0000
      7 H          33.9537   -1.6694    0.9063 H      306  EDO306      0.0000
      8 H          35.0157   -3.9446   -0.1563 H      306  EDO306      0.0000
      9 H          33.6601   -4.4289   -1.2122 H      306  EDO306      0.0000
     10 H          32.2725   -4.1330    0.4579 H      306  EDO306      0.0000
@<TRIPOS>BOND
     1     1     2    1
     2     1     3    1
     3     1     5    1
     4     1     6    1
     5     2     7    1
     6     3     4    1
     7     3     8    1
     8     3     9    1
     9     4    10    1

