@<TRIPOS>MOLECULE
EDO_1_A_305
 10 9 0 0 0
SMALL
NO_CHARGES

@<TRIPOS>ATOM
      1 C1          6.3840   18.2530   -1.6700 C.3    305  EDO305      0.0000
      2 O1          6.1810   17.2020   -2.6210 O.3    305  EDO305      0.0000
      3 C2          7.8370   18.7090   -1.7170 C.3    305  EDO305      0.0000
      4 O2          8.0420   19.7550   -0.7610 O.3    305  EDO305      0.0000
      5 H           6.1258   17.8847   -0.6546 H      305  EDO305      0.0000
      6 H           5.7067   19.1017   -1.9035 H      305  EDO305      0.0000
      7 H           5.2606   16.9737   -2.6199 H      305  EDO305      0.0000
      8 H           8.0856   19.0960   -2.7269 H      305  EDO305      0.0000
      9 H           8.5265   17.8635   -1.5095 H      305  EDO305      0.0000
     10 H           8.2360   19.3601    0.0788 H      305  EDO305      0.0000
@<TRIPOS>BOND
     1     1     2    1
     2     1     3    1
     3     1     5    1
     4     1     6    1
     5     2     7    1
     6     3     4    1
     7     3     8    1
     8     3     9    1
     9     4    10    1

