EDO_1_A_303
  -ISIS-            3D

 10  9  0  0  0  0  0  0  0  0  1 V2000
   33.6420  -19.4860   10.1760 C   0  0  0  0  0
   34.9010  -18.8050   10.1540 O   0  0  0  0  0
   32.5110  -18.4660   10.2350 C   0  0  0  0  0
   32.6180  -17.6990   11.4400 O   0  0  0  0  0
   33.5965  -20.1851   11.0376 H   0  0  0  0  0
   33.5533  -20.0982    9.2547 H   0  0  0  0  0
   35.1628  -18.6557   11.0534 H   0  0  0  0  0
   31.5299  -18.9845   10.2295 H   0  0  0  0  0
   32.5304  -17.7943    9.3510 H   0  0  0  0  0
   33.3008  -17.0544   11.3034 H   0  0  0  0  0
  1  2  1  0  0  0
  1  3  1  0  0  0
  1  5  1  0  0  0
  1  6  1  0  0  0
  2  7  1  0  0  0
  3  4  1  0  0  0
  3  8  1  0  0  0
  3  9  1  0  0  0
  4 10  1  0  0  0
M  END
$$$$
