@<TRIPOS>MOLECULE
K36_2_A_401
 60 61 0 0 0
SMALL
NO_CHARGES

@<TRIPOS>ATOM
      1 C7          4.7300   16.4560   44.4990 C.3    401  K36401      0.0000
      2 O8          5.5300   15.5330   45.2250 O.3    401  K36401      0.0000
      3 C9          5.9370   14.4000   44.4850 C.2    401  K36401      0.0000
      4 O10         5.8670   14.3940   43.3030 O.2    401  K36401      0.0000
      5 C1          3.2320   16.2430   44.7910 C.ar   401  K36401      0.0000
      6 C2          2.2840   17.0420   44.1540 C.ar   401  K36401      0.0000
      7 C3          0.9240   16.8790   44.4080 C.ar   401  K36401      0.0000
      8 C4          0.5120   15.8970   45.2960 C.ar   401  K36401      0.0000
      9 C5          1.4560   15.0880   45.9340 C.ar   401  K36401      0.0000
     10 C6          2.8150   15.2590   45.6880 C.ar   401  K36401      0.0000
     11 N11         6.4480   13.2200   45.1890 N.am   401  K36401      0.0000
     12 C12         6.5470   11.9770   44.4500 C.3    401  K36401      0.0000
     13 C17         5.1260   11.5450   44.0830 C.2    401  K36401      0.0000
     14 O18         4.2410   11.6630   44.8670 O.2    401  K36401      0.0000
     15 C13         7.1820   10.8910   45.2870 C.3    401  K36401      0.0000
     16 C14         8.6590   11.2350   45.4910 C.3    401  K36401      0.0000
     17 C15         9.3740   11.2510   44.1440 C.3    401  K36401      0.0000
     18 C16         9.3170   10.2140   46.4260 C.3    401  K36401      0.0000
     19 N19         4.8930   10.9980   42.7390 N.am   401  K36401      0.0000
     20 C20         3.5600   10.5610   42.3190 C.3    401  K36401      0.0000
     21 C21         3.7350    9.0760   41.9810 C.3    401  K36401      0.0000
     22 O22         2.4930    8.4480   41.8560 O.3    401  K36401      0.0000
     23 C24         3.0920   11.3800   41.1010 C.3    401  K36401      0.0000
     24 C25         2.6970   12.8450   41.5140 C.3    401  K36401      0.0000
     25 C26         1.4700   12.8160   42.4470 C.3    401  K36401      0.0000
     26 C27         0.8180   14.1290   42.2670 C.3    401  K36401      0.0000
     27 N28         1.1280   14.5250   40.8400 N.am   401  K36401      0.0000
     28 C29         2.3090   13.6910   40.4070 C.2    401  K36401      0.0000
     29 O30         2.8210   13.7580   39.3410 O.2    401  K36401      0.0000
     30 H           4.9044   16.4350   43.4048 H      401  K36401      0.0000
     31 H           4.9968   17.4832   44.8260 H      401  K36401      0.0000
     32 H           2.6094   17.8185   43.4405 H      401  K36401      0.0000
     33 H           0.1826   17.5226   43.9046 H      401  K36401      0.0000
     34 H          -0.5627   15.7541   45.5015 H      401  K36401      0.0000
     35 H           1.1224   14.3075   46.6392 H      401  K36401      0.0000
     36 H           3.5404   14.6099   46.2046 H      401  K36401      0.0000
     37 H           6.6412   13.2849   46.1959 H      401  K36401      0.0000
     38 H           7.1020   12.1282   43.4989 H      401  K36401      0.0000
     39 H           7.0856    9.9048   44.7769 H      401  K36401      0.0000
     40 H           6.6607   10.8011   46.2677 H      401  K36401      0.0000
     41 H           8.7564   12.2414   45.9644 H      401  K36401      0.0000
     42 H          10.4782   11.2930   44.2785 H      401  K36401      0.0000
     43 H           9.1191   12.1366   43.5232 H      401  K36401      0.0000
     44 H           9.1624   10.3403   43.5402 H      401  K36401      0.0000
     45 H          10.3872   10.4567   46.6124 H      401  K36401      0.0000
     46 H           9.2801    9.1832   46.0076 H      401  K36401      0.0000
     47 H           8.8156   10.1853   47.4194 H      401  K36401      0.0000
     48 H           5.6813   10.9366   42.0801 H      401  K36401      0.0000
     49 H           2.8235   10.6480   43.1479 H      401  K36401      0.0000
     50 H           4.3233    8.5607   42.7724 H      401  K36401      0.0000
     51 H           4.3007    8.9536   41.0331 H      401  K36401      0.0000
     52 H           2.1406    8.2829   42.7208 H      401  K36401      0.0000
     53 H           2.2150   10.8851   40.6243 H      401  K36401      0.0000
     54 H           3.8981   11.4088   40.3324 H      401  K36401      0.0000
     55 H           3.5526   13.3308   42.0402 H      401  K36401      0.0000
     56 H           1.7456   12.6364   43.5103 H      401  K36401      0.0000
     57 H           0.7708   12.0057   42.1350 H      401  K36401      0.0000
     58 H           1.2584   14.8694   42.9642 H      401  K36401      0.0000
     59 H          -0.2765   14.0805   42.4624 H      401  K36401      0.0000
     60 H           0.6577   15.2224   40.2512 H      401  K36401      0.0000
@<TRIPOS>BOND
     1     1     2    1
     2     1     5    1
     3     1    30    1
     4     1    31    1
     5     2     3    1
     6     3     4    2
     7     3    11    1
     8     5     6   ar
     9     5    10   ar
    10     6     7   ar
    11     6    32    1
    12     7     8   ar
    13     7    33    1
    14     8     9   ar
    15     8    34    1
    16     9    10   ar
    17     9    35    1
    18    10    36    1
    19    11    12    1
    20    11    37    1
    21    12    13    1
    22    12    15    1
    23    12    38    1
    24    13    14    2
    25    13    19    1
    26    15    16    1
    27    15    39    1
    28    15    40    1
    29    16    17    1
    30    16    18    1
    31    16    41    1
    32    17    42    1
    33    17    43    1
    34    17    44    1
    35    18    45    1
    36    18    46    1
    37    18    47    1
    38    19    20    1
    39    19    48    1
    40    20    21    1
    41    20    23    1
    42    20    49    1
    43    21    22    1
    44    21    50    1
    45    21    51    1
    46    22    52    1
    47    23    24    1
    48    23    53    1
    49    23    54    1
    50    24    25    1
    51    24    28    1
    52    24    55    1
    53    25    26    1
    54    25    56    1
    55    25    57    1
    56    26    27    1
    57    26    58    1
    58    26    59    1
    59    27    28    1
    60    27    60    1
    61    28    29    2

