K36_1_A_401
  -ISIS-            3D

 60 61  0  0  0  0  0  0  0  0  1 V2000
  -13.9890   16.4560    0.0490 C   0  0  0  0  0
  -14.7890   15.5330   -0.6770 O   0  0  0  0  0
  -15.1960   14.4000    0.0630 C   0  0  0  0  0
  -15.1260   14.3940    1.2450 O   0  0  0  0  0
  -12.4910   16.2430   -0.2430 C   0  0  0  0  0
  -11.5440   17.0420    0.3940 C   0  0  0  0  0
  -10.1840   16.8790    0.1400 C   0  0  0  0  0
   -9.7720   15.8970   -0.7480 C   0  0  0  0  0
  -10.7150   15.0880   -1.3860 C   0  0  0  0  0
  -12.0740   15.2590   -1.1400 C   0  0  0  0  0
  -15.7070   13.2200   -0.6410 N   0  0  0  0  0
  -15.8070   11.9770    0.0980 C   0  0  0  0  0
  -14.3850   11.5450    0.4650 C   0  0  0  0  0
  -13.5010   11.6630   -0.3190 O   0  0  0  0  0
  -16.4420   10.8910   -0.7390 C   0  0  0  0  0
  -17.9180   11.2350   -0.9430 C   0  0  0  0  0
  -18.6330   11.2510    0.4030 C   0  0  0  0  0
  -18.5770   10.2140   -1.8780 C   0  0  0  0  0
  -14.1530   10.9980    1.8090 N   0  0  0  0  0
  -12.8200   10.5610    2.2290 C   0  0  0  0  0
  -12.9940    9.0760    2.5670 C   0  0  0  0  0
  -11.7530    8.4480    2.6910 O   0  0  0  0  0
  -12.3510   11.3800    3.4460 C   0  0  0  0  0
  -11.9560   12.8450    3.0340 C   0  0  0  0  0
  -10.7300   12.8160    2.1010 C   0  0  0  0  0
  -10.0770   14.1290    2.2810 C   0  0  0  0  0
  -10.3870   14.5250    3.7070 N   0  0  0  0  0
  -11.5680   13.6910    4.1410 C   0  0  0  0  0
  -12.0810   13.7580    5.2070 O   0  0  0  0  0
  -14.1633   16.4347    1.1432 H   0  0  0  0  0
  -14.2559   17.4832   -0.2777 H   0  0  0  0  0
  -11.8695   17.8185    1.1074 H   0  0  0  0  0
   -9.4426   17.5226    0.6434 H   0  0  0  0  0
   -8.6972   15.7544   -0.9532 H   0  0  0  0  0
  -10.3812   14.3076   -2.0911 H   0  0  0  0  0
  -12.7995   14.6099   -1.6566 H   0  0  0  0  0
  -15.8996   13.2848   -1.6481 H   0  0  0  0  0
  -16.3617   12.1285    1.0492 H   0  0  0  0  0
  -16.3457    9.9048   -0.2288 H   0  0  0  0  0
  -15.9206   10.8010   -1.7196 H   0  0  0  0  0
  -18.0151   12.2414   -1.4165 H   0  0  0  0  0
  -19.7370   11.2965    0.2679 H   0  0  0  0  0
  -18.3763   12.1348    1.0256 H   0  0  0  0  0
  -18.4246   10.3386    1.0054 H   0  0  0  0  0
  -19.6464   10.4589   -2.0663 H   0  0  0  0  0
  -18.5429    9.1837   -1.4583 H   0  0  0  0  0
  -18.0741   10.1830   -2.8705 H   0  0  0  0  0
  -14.9417   10.9367    2.4679 H   0  0  0  0  0
  -12.0838   10.6480    1.3998 H   0  0  0  0  0
  -13.5830    8.5608    1.7761 H   0  0  0  0  0
  -13.5592    8.9535    3.5152 H   0  0  0  0  0
  -11.4004    8.2841    1.8261 H   0  0  0  0  0
  -11.4739   10.8848    3.9222 H   0  0  0  0  0
  -13.1565   11.4087    4.2152 H   0  0  0  0  0
  -12.8117   13.3310    2.5081 H   0  0  0  0  0
  -11.0059   12.6369    1.0377 H   0  0  0  0  0
  -10.0308   12.0055    2.4124 H   0  0  0  0  0
  -10.5167   14.8694    1.5836 H   0  0  0  0  0
   -8.9825   14.0798    2.0858 H   0  0  0  0  0
   -9.9168   15.2228    4.2955 H   0  0  0  0  0
  1  2  1  0  0  0
  1  5  1  0  0  0
  1 30  1  0  0  0
  1 31  1  0  0  0
  2  3  1  0  0  0
  3  4  2  0  0  0
  3 11  1  0  0  0
  5  6  2  0  0  0
  5 10  1  0  0  0
  6  7  1  0  0  0
  6 32  1  0  0  0
  7  8  2  0  0  0
  7 33  1  0  0  0
  8  9  1  0  0  0
  8 34  1  0  0  0
  9 10  2  0  0  0
  9 35  1  0  0  0
 10 36  1  0  0  0
 11 12  1  0  0  0
 11 37  1  0  0  0
 12 13  1  0  0  0
 12 15  1  0  0  0
 12 38  1  0  0  0
 13 14  2  0  0  0
 13 19  1  0  0  0
 15 16  1  0  0  0
 15 39  1  0  0  0
 15 40  1  0  0  0
 16 17  1  0  0  0
 16 18  1  0  0  0
 16 41  1  0  0  0
 17 42  1  0  0  0
 17 43  1  0  0  0
 17 44  1  0  0  0
 18 45  1  0  0  0
 18 46  1  0  0  0
 18 47  1  0  0  0
 19 20  1  0  0  0
 19 48  1  0  0  0
 20 21  1  0  0  0
 20 23  1  0  0  0
 20 49  1  0  0  0
 21 22  1  0  0  0
 21 50  1  0  0  0
 21 51  1  0  0  0
 22 52  1  0  0  0
 23 24  1  0  0  0
 23 53  1  0  0  0
 23 54  1  0  0  0
 24 25  1  0  0  0
 24 28  1  0  0  0
 24 55  1  0  0  0
 25 26  1  0  0  0
 25 56  1  0  0  0
 25 57  1  0  0  0
 26 27  1  0  0  0
 26 58  1  0  0  0
 26 59  1  0  0  0
 27 28  1  0  0  0
 27 60  1  0  0  0
 28 29  2  0  0  0
M  END
$$$$
