K36_2_A_401
  -ISIS-            3D

 60 61  0  0  0  0  0  0  0  0  1 V2000
    4.7300   16.4560   44.4990 C   0  0  0  0  0
    5.5300   15.5330   45.2250 O   0  0  0  0  0
    5.9370   14.4000   44.4850 C   0  0  0  0  0
    5.8670   14.3940   43.3030 O   0  0  0  0  0
    3.2320   16.2430   44.7910 C   0  0  0  0  0
    2.2840   17.0420   44.1540 C   0  0  0  0  0
    0.9240   16.8790   44.4080 C   0  0  0  0  0
    0.5120   15.8970   45.2960 C   0  0  0  0  0
    1.4560   15.0880   45.9340 C   0  0  0  0  0
    2.8150   15.2590   45.6880 C   0  0  0  0  0
    6.4480   13.2200   45.1890 N   0  0  0  0  0
    6.5470   11.9770   44.4500 C   0  0  0  0  0
    5.1260   11.5450   44.0830 C   0  0  0  0  0
    4.2410   11.6630   44.8670 O   0  0  0  0  0
    7.1820   10.8910   45.2870 C   0  0  0  0  0
    8.6590   11.2350   45.4910 C   0  0  0  0  0
    9.3740   11.2510   44.1440 C   0  0  0  0  0
    9.3170   10.2140   46.4260 C   0  0  0  0  0
    4.8930   10.9980   42.7390 N   0  0  0  0  0
    3.5600   10.5610   42.3190 C   0  0  0  0  0
    3.7350    9.0760   41.9810 C   0  0  0  0  0
    2.4930    8.4480   41.8560 O   0  0  0  0  0
    3.0920   11.3800   41.1010 C   0  0  0  0  0
    2.6970   12.8450   41.5140 C   0  0  0  0  0
    1.4700   12.8160   42.4470 C   0  0  0  0  0
    0.8180   14.1290   42.2670 C   0  0  0  0  0
    1.1280   14.5250   40.8400 N   0  0  0  0  0
    2.3090   13.6910   40.4070 C   0  0  0  0  0
    2.8210   13.7580   39.3410 O   0  0  0  0  0
    4.9044   16.4350   43.4048 H   0  0  0  0  0
    4.9968   17.4832   44.8260 H   0  0  0  0  0
    2.6094   17.8185   43.4405 H   0  0  0  0  0
    0.1826   17.5226   43.9046 H   0  0  0  0  0
   -0.5627   15.7541   45.5015 H   0  0  0  0  0
    1.1224   14.3075   46.6392 H   0  0  0  0  0
    3.5404   14.6099   46.2046 H   0  0  0  0  0
    6.6412   13.2849   46.1959 H   0  0  0  0  0
    7.1020   12.1282   43.4989 H   0  0  0  0  0
    7.0856    9.9048   44.7769 H   0  0  0  0  0
    6.6607   10.8011   46.2677 H   0  0  0  0  0
    8.7564   12.2414   45.9644 H   0  0  0  0  0
   10.4782   11.2930   44.2785 H   0  0  0  0  0
    9.1191   12.1366   43.5232 H   0  0  0  0  0
    9.1624   10.3403   43.5402 H   0  0  0  0  0
   10.3872   10.4567   46.6124 H   0  0  0  0  0
    9.2801    9.1832   46.0076 H   0  0  0  0  0
    8.8156   10.1853   47.4194 H   0  0  0  0  0
    5.6813   10.9366   42.0801 H   0  0  0  0  0
    2.8235   10.6480   43.1479 H   0  0  0  0  0
    4.3233    8.5607   42.7724 H   0  0  0  0  0
    4.3007    8.9536   41.0331 H   0  0  0  0  0
    2.1406    8.2829   42.7208 H   0  0  0  0  0
    2.2150   10.8851   40.6243 H   0  0  0  0  0
    3.8981   11.4088   40.3324 H   0  0  0  0  0
    3.5526   13.3308   42.0402 H   0  0  0  0  0
    1.7456   12.6364   43.5103 H   0  0  0  0  0
    0.7708   12.0057   42.1350 H   0  0  0  0  0
    1.2584   14.8694   42.9642 H   0  0  0  0  0
   -0.2765   14.0805   42.4624 H   0  0  0  0  0
    0.6577   15.2224   40.2512 H   0  0  0  0  0
  1  2  1  0  0  0
  1  5  1  0  0  0
  1 30  1  0  0  0
  1 31  1  0  0  0
  2  3  1  0  0  0
  3  4  2  0  0  0
  3 11  1  0  0  0
  5  6  2  0  0  0
  5 10  1  0  0  0
  6  7  1  0  0  0
  6 32  1  0  0  0
  7  8  2  0  0  0
  7 33  1  0  0  0
  8  9  1  0  0  0
  8 34  1  0  0  0
  9 10  2  0  0  0
  9 35  1  0  0  0
 10 36  1  0  0  0
 11 12  1  0  0  0
 11 37  1  0  0  0
 12 13  1  0  0  0
 12 15  1  0  0  0
 12 38  1  0  0  0
 13 14  2  0  0  0
 13 19  1  0  0  0
 15 16  1  0  0  0
 15 39  1  0  0  0
 15 40  1  0  0  0
 16 17  1  0  0  0
 16 18  1  0  0  0
 16 41  1  0  0  0
 17 42  1  0  0  0
 17 43  1  0  0  0
 17 44  1  0  0  0
 18 45  1  0  0  0
 18 46  1  0  0  0
 18 47  1  0  0  0
 19 20  1  0  0  0
 19 48  1  0  0  0
 20 21  1  0  0  0
 20 23  1  0  0  0
 20 49  1  0  0  0
 21 22  1  0  0  0
 21 50  1  0  0  0
 21 51  1  0  0  0
 22 52  1  0  0  0
 23 24  1  0  0  0
 23 53  1  0  0  0
 23 54  1  0  0  0
 24 25  1  0  0  0
 24 28  1  0  0  0
 24 55  1  0  0  0
 25 26  1  0  0  0
 25 56  1  0  0  0
 25 57  1  0  0  0
 26 27  1  0  0  0
 26 58  1  0  0  0
 26 59  1  0  0  0
 27 28  1  0  0  0
 27 60  1  0  0  0
 28 29  2  0  0  0
M  END
$$$$
