DMS_2_A_403
  -ISIS-            3D

 10  9  0  0  0  0  0  0  0  0  1 V2000
   -2.3120  -18.9970   -8.1470 S   0  0  0  0  0
   -3.6380  -18.6820   -8.8050 O   0  0  0  0  0
   -1.0600  -18.2050   -9.1330 C   0  0  0  0  0
   -1.9550  -20.6700   -8.6410 C   0  0  0  0  0
   -0.0545  -18.5363   -8.8019 H   0  0  0  0  0
   -1.1349  -17.1058   -9.0044 H   0  0  0  0  0
   -1.1972  -18.4528  -10.2056 H   0  0  0  0  0
   -0.9255  -20.9424   -8.3307 H   0  0  0  0  0
   -2.0508  -20.7785   -9.7409 H   0  0  0  0  0
   -2.6710  -21.3581   -8.1467 H   0  0  0  0  0
  1  2  2  0  0  0
  1  3  1  0  0  0
  1  4  1  0  0  0
  3  5  1  0  0  0
  3  6  1  0  0  0
  3  7  1  0  0  0
  4  8  1  0  0  0
  4  9  1  0  0  0
  4 10  1  0  0  0
M  END
$$$$
