@<TRIPOS>MOLECULE
EDO_1_A_505
 10 9 0 0 0
SMALL
NO_CHARGES

@<TRIPOS>ATOM
      1 C1        -23.1030   86.2370   73.5270 C.3    505  EDO505      0.0000
      2 O1        -23.9940   86.4060   74.6250 O.3    505  EDO505      0.0000
      3 C2        -21.8330   86.9780   73.6900 C.3    505  EDO505      0.0000
      4 O2        -22.0240   88.3560   73.6430 O.3    505  EDO505      0.0000
      5 H         -23.6182   86.5427   72.5917 H      505  EDO505      0.0000
      6 H         -22.8942   85.1514   73.4224 H      505  EDO505      0.0000
      7 H         -24.0196   87.3357   74.8173 H      505  EDO505      0.0000
      8 H         -21.1068   86.6796   72.9034 H      505  EDO505      0.0000
      9 H         -21.3609   86.7174   74.6603 H      505  EDO505      0.0000
     10 H         -22.0923   88.6295   72.7374 H      505  EDO505      0.0000
@<TRIPOS>BOND
     1     1     2    1
     2     1     3    1
     3     1     5    1
     4     1     6    1
     5     2     7    1
     6     3     4    1
     7     3     8    1
     8     3     9    1
     9     4    10    1

