@<TRIPOS>MOLECULE
EDO_1_A_504
 10 9 0 0 0
SMALL
NO_CHARGES

@<TRIPOS>ATOM
      1 C1        -17.2910   75.8620   52.6480 C.3    504  EDO504      0.0000
      2 O1        -18.6260   75.9010   53.1490 O.3    504  EDO504      0.0000
      3 C2        -17.1160   75.0160   51.4330 C.3    504  EDO504      0.0000
      4 O2        -17.9700   73.8620   51.4220 O.3    504  EDO504      0.0000
      5 H         -16.6515   75.4536   53.4596 H      504  EDO504      0.0000
      6 H         -16.9229   76.8942   52.4659 H      504  EDO504      0.0000
      7 H         -19.0965   76.5879   52.6949 H      504  EDO504      0.0000
      8 H         -16.0612   74.6889   51.3252 H      504  EDO504      0.0000
      9 H         -17.3505   75.6166   50.5283 H      504  EDO504      0.0000
     10 H         -18.6841   74.0437   52.0229 H      504  EDO504      0.0000
@<TRIPOS>BOND
     1     1     2    1
     2     1     3    1
     3     1     5    1
     4     1     6    1
     5     2     7    1
     6     3     4    1
     7     3     8    1
     8     3     9    1
     9     4    10    1

