EDO_1_A_505
  -ISIS-            3D

 10  9  0  0  0  0  0  0  0  0  1 V2000
  -23.1030   86.2370   73.5270 C   0  0  0  0  0
  -23.9940   86.4060   74.6250 O   0  0  0  0  0
  -21.8330   86.9780   73.6900 C   0  0  0  0  0
  -22.0240   88.3560   73.6430 O   0  0  0  0  0
  -23.6182   86.5427   72.5917 H   0  0  0  0  0
  -22.8942   85.1514   73.4224 H   0  0  0  0  0
  -24.0196   87.3357   74.8173 H   0  0  0  0  0
  -21.1068   86.6796   72.9034 H   0  0  0  0  0
  -21.3609   86.7174   74.6603 H   0  0  0  0  0
  -22.0923   88.6295   72.7374 H   0  0  0  0  0
  1  2  1  0  0  0
  1  3  1  0  0  0
  1  5  1  0  0  0
  1  6  1  0  0  0
  2  7  1  0  0  0
  3  4  1  0  0  0
  3  8  1  0  0  0
  3  9  1  0  0  0
  4 10  1  0  0  0
M  END
$$$$
