DMS_1_A_1003
  -ISIS-            3D

 10  9  0  0  0  0  0  0  0  0  1 V2000
    6.2140   -1.0060   -6.2810 S   0  0  0  0  0
    7.2230   -0.7590   -7.3040 O   0  0  0  0  0
    7.1820   -1.0310   -4.7940 C   0  0  0  0  0
    5.8890   -2.7300   -6.3790 C   0  0  0  0  0
    6.5604   -1.3877   -3.9472 H   0  0  0  0  0
    7.5347   -0.0036   -4.5681 H   0  0  0  0  0
    8.0613   -1.6966   -4.9104 H   0  0  0  0  0
    5.2821   -3.0494   -5.5074 H   0  0  0  0  0
    6.8357   -3.3073   -6.3984 H   0  0  0  0  0
    5.3188   -2.9445   -7.3062 H   0  0  0  0  0
  1  2  2  0  0  0
  1  3  1  0  0  0
  1  4  1  0  0  0
  3  5  1  0  0  0
  3  6  1  0  0  0
  3  7  1  0  0  0
  4  8  1  0  0  0
  4  9  1  0  0  0
  4 10  1  0  0  0
M  END
$$$$
