@<TRIPOS>MOLECULE
DMS_1_A_1004
 10 9 0 0 0
SMALL
NO_CHARGES

@<TRIPOS>ATOM
      1 S           2.3970  -18.9960    8.0290 S.o   1004  DMS1004      0.0000
      2 O           3.6990  -18.8760    8.7460 O.2   1004  DMS1004      0.0000
      3 C1          1.2760  -18.0800    9.0480 C.3   1004  DMS1004      0.0000
      4 C2          1.8060  -20.5730    8.5830 C.3   1004  DMS1004      0.0000
      5 H           0.2299  -18.2822    8.7393 H     1004  DMS1004      0.0000
      6 H           1.4758  -16.9957    8.9249 H     1004  DMS1004      0.0000
      7 H           1.4043  -18.3456   10.1175 H     1004  DMS1004      0.0000
      8 H           0.7442  -20.7048    8.2901 H     1004  DMS1004      0.0000
      9 H           1.9004  -20.6681    9.6843 H     1004  DMS1004      0.0000
     10 H           2.4049  -21.3748    8.1043 H     1004  DMS1004      0.0000
@<TRIPOS>BOND
     1     1     2    2
     2     1     3    1
     3     1     4    1
     4     3     5    1
     5     3     6    1
     6     3     7    1
     7     4     8    1
     8     4     9    1
     9     4    10    1

