@<TRIPOS>MOLECULE
DMS_2_A_1005
 10 9 0 0 0
SMALL
NO_CHARGES

@<TRIPOS>ATOM
      1 S          -5.4640    0.4620  -17.9580 S.o   1005  DMS1005      0.0000
      2 O          -4.8460    1.5650  -18.7460 O.2   1005  DMS1005      0.0000
      3 C1         -6.3330   -0.4450  -19.1810 C.3   1005  DMS1005      0.0000
      4 C2         -6.8480    1.1730  -17.2020 C.3   1005  DMS1005      0.0000
      5 H          -6.9865   -1.2014  -18.6997 H     1005  DMS1005      0.0000
      6 H          -5.6062   -0.9718  -19.8332 H     1005  DMS1005      0.0000
      7 H          -6.9517    0.2284  -19.8078 H     1005  DMS1005      0.0000
      8 H          -7.4840    0.3839  -16.7518 H     1005  DMS1005      0.0000
      9 H          -7.4471    1.7522  -17.9342 H     1005  DMS1005      0.0000
     10 H          -6.5155    1.8581  -16.3950 H     1005  DMS1005      0.0000
@<TRIPOS>BOND
     1     1     2    2
     2     1     3    1
     3     1     4    1
     4     3     5    1
     5     3     6    1
     6     3     7    1
     7     4     8    1
     8     4     9    1
     9     4    10    1

