@<TRIPOS>MOLECULE
DMS_1_A_1002
 10 9 0 0 0
SMALL
NO_CHARGES

@<TRIPOS>ATOM
      1 S           7.0030  -28.1450   21.4840 S.o   1002  DMS1002      0.0000
      2 O           7.6200  -27.1320   22.3490 O.2   1002  DMS1002      0.0000
      3 C1          5.6800  -28.7490   22.5080 C.3   1002  DMS1002      0.0000
      4 C2          6.0270  -27.2620   20.3060 C.3   1002  DMS1002      0.0000
      5 H           5.0237  -29.4190   21.9159 H     1002  DMS1002      0.0000
      6 H           5.0800  -27.9051   22.9067 H     1002  DMS1002      0.0000
      7 H           6.1042  -29.3239   23.3567 H     1002  DMS1002      0.0000
      8 H           5.3802  -27.9693   19.7477 H     1002  DMS1002      0.0000
      9 H           6.6960  -26.7461   19.5872 H     1002  DMS1002      0.0000
     10 H           5.3934  -26.5063   20.8143 H     1002  DMS1002      0.0000
@<TRIPOS>BOND
     1     1     2    2
     2     1     3    1
     3     1     4    1
     4     3     5    1
     5     3     6    1
     6     3     7    1
     7     4     8    1
     8     4     9    1
     9     4    10    1

