@<TRIPOS>MOLECULE
DMS_2_A_1003
 10 9 0 0 0
SMALL
NO_CHARGES

@<TRIPOS>ATOM
      1 S          -6.2140   -1.0060    6.2810 S.o   1003  DMS1003      0.0000
      2 O          -7.2230   -0.7590    7.3040 O.2   1003  DMS1003      0.0000
      3 C1         -7.1820   -1.0310    4.7940 C.3   1003  DMS1003      0.0000
      4 C2         -5.8890   -2.7300    6.3790 C.3   1003  DMS1003      0.0000
      5 H          -6.5604   -1.3877    3.9472 H     1003  DMS1003      0.0000
      6 H          -7.5347   -0.0036    4.5681 H     1003  DMS1003      0.0000
      7 H          -8.0613   -1.6966    4.9104 H     1003  DMS1003      0.0000
      8 H          -5.2821   -3.0494    5.5074 H     1003  DMS1003      0.0000
      9 H          -6.8357   -3.3073    6.3984 H     1003  DMS1003      0.0000
     10 H          -5.3188   -2.9445    7.3062 H     1003  DMS1003      0.0000
@<TRIPOS>BOND
     1     1     2    2
     2     1     3    1
     3     1     4    1
     4     3     5    1
     5     3     6    1
     6     3     7    1
     7     4     8    1
     8     4     9    1
     9     4    10    1

