DMS_1_A_1004
  -ISIS-            3D

 10  9  0  0  0  0  0  0  0  0  1 V2000
    2.3970  -18.9960    8.0290 S   0  0  0  0  0
    3.6990  -18.8760    8.7460 O   0  0  0  0  0
    1.2760  -18.0800    9.0480 C   0  0  0  0  0
    1.8060  -20.5730    8.5830 C   0  0  0  0  0
    0.2299  -18.2822    8.7393 H   0  0  0  0  0
    1.4758  -16.9957    8.9249 H   0  0  0  0  0
    1.4043  -18.3456   10.1175 H   0  0  0  0  0
    0.7442  -20.7048    8.2901 H   0  0  0  0  0
    1.9004  -20.6681    9.6843 H   0  0  0  0  0
    2.4049  -21.3748    8.1043 H   0  0  0  0  0
  1  2  2  0  0  0
  1  3  1  0  0  0
  1  4  1  0  0  0
  3  5  1  0  0  0
  3  6  1  0  0  0
  3  7  1  0  0  0
  4  8  1  0  0  0
  4  9  1  0  0  0
  4 10  1  0  0  0
M  END
$$$$
