DMS_1_A_504
  -ISIS-            3D

 10  9  0  0  0  0  0  0  0  0  1 V2000
   11.9110   20.2040   15.1820 S   0  0  0  0  0
   10.6710   19.9110   15.9500 O   0  0  0  0  0
   11.9330   21.9880   15.0470 C   0  0  0  0  0
   11.5490   19.8590   13.4880 C   0  0  0  0  0
   12.7449   22.3026   14.3598 H   0  0  0  0  0
   12.1203   22.4283   16.0478 H   0  0  0  0  0
   10.9598   22.3594   14.6649 H   0  0  0  0  0
   12.3768   20.2200   12.8442 H   0  0  0  0  0
   10.6029   20.3526   13.1842 H   0  0  0  0  0
   11.4427   18.7634   13.3513 H   0  0  0  0  0
  1  2  2  0  0  0
  1  3  1  0  0  0
  1  4  1  0  0  0
  3  5  1  0  0  0
  3  6  1  0  0  0
  3  7  1  0  0  0
  4  8  1  0  0  0
  4  9  1  0  0  0
  4 10  1  0  0  0
M  END
$$$$
