DMS_2_A_2309
  -ISIS-            3D

 11 10  0  0  0  0  0  0  0  0  1 V2000
   15.2300   26.9860  -20.7540 S   0  0  0  0  0
   15.0770   25.7490  -19.4650 O   0  0  0  0  0
   16.5870   28.1350  -20.4130 C   0  0  0  0  0
   15.8580   26.1560  -22.2590 C   0  0  0  0  0
   14.1197   24.9169  -19.7679 H   0  0  0  0  0
   16.6724   28.8416  -21.2627 H   0  0  0  0  0
   17.5227   27.5540  -20.2894 H   0  0  0  0  0
   16.3472   28.6825  -19.4797 H   0  0  0  0  0
   15.9892   26.9196  -23.0516 H   0  0  0  0  0
   15.1098   25.4003  -22.5713 H   0  0  0  0  0
   16.8237   25.6683  -22.0177 H   0  0  0  0  0
  1  2  1  0  0  0
  1  3  1  0  0  0
  1  4  1  0  0  0
  2  5  1  0  0  0
  3  6  1  0  0  0
  3  7  1  0  0  0
  3  8  1  0  0  0
  4  9  1  0  0  0
  4 10  1  0  0  0
  4 11  1  0  0  0
M  END
$$$$
