@<TRIPOS>MOLECULE
DMS_2_A_2309
 11 10 0 0 0
SMALL
NO_CHARGES

@<TRIPOS>ATOM
      1 S          15.2300   26.9860  -20.7540 S.o   2309  DMS2309      0.0000
      2 O          15.0770   25.7490  -19.4650 O.2   2309  DMS2309      0.0000
      3 C1         16.5870   28.1350  -20.4130 C.3   2309  DMS2309      0.0000
      4 C2         15.8580   26.1560  -22.2590 C.3   2309  DMS2309      0.0000
      5 H          14.1197   24.9169  -19.7679 H     2309  DMS2309      0.0000
      6 H          16.6724   28.8416  -21.2627 H     2309  DMS2309      0.0000
      7 H          17.5227   27.5540  -20.2894 H     2309  DMS2309      0.0000
      8 H          16.3472   28.6825  -19.4797 H     2309  DMS2309      0.0000
      9 H          15.9892   26.9196  -23.0516 H     2309  DMS2309      0.0000
     10 H          15.1098   25.4003  -22.5713 H     2309  DMS2309      0.0000
     11 H          16.8237   25.6683  -22.0177 H     2309  DMS2309      0.0000
@<TRIPOS>BOND
     1     1     2    1
     2     1     3    1
     3     1     4    1
     4     2     5    1
     5     3     6    1
     6     3     7    1
     7     3     8    1
     8     4     9    1
     9     4    10    1
    10     4    11    1

