@<TRIPOS>MOLECULE
EDO_1_A_101
 10 9 0 0 0
SMALL
NO_CHARGES

@<TRIPOS>ATOM
      1 C1         28.2030  -10.6970    7.0530 C.3    101  EDO101      0.0000
      2 O1         28.6500  -10.4420    8.3890 O.3    101  EDO101      0.0000
      3 C2         26.7140  -10.3870    6.9600 C.3    101  EDO101      0.0000
      4 O2         26.2640  -10.6690    5.6310 O.3    101  EDO101      0.0000
      5 H          28.4116  -11.7523    6.7774 H      101  EDO101      0.0000
      6 H          28.7783  -10.0528    6.3563 H      101  EDO101      0.0000
      7 H          28.4256  -11.1889    8.9280 H      101  EDO101      0.0000
      8 H          26.5066   -9.3268    7.2168 H      101  EDO101      0.0000
      9 H          26.1406  -11.0185    7.6698 H      101  EDO101      0.0000
     10 H          26.4867   -9.9328    5.0763 H      101  EDO101      0.0000
@<TRIPOS>BOND
     1     1     2    1
     2     1     3    1
     3     1     5    1
     4     1     6    1
     5     2     7    1
     6     3     4    1
     7     3     8    1
     8     3     9    1
     9     4    10    1

