EDO_1_B_302
  -ISIS-            3D

 10  9  0  0  0  0  0  0  0  0  1 V2000
   14.1050   -8.6610   10.6530 C   0  0  0  0  0
   14.7480   -9.1710   11.8300 O   0  0  0  0  0
   13.9150   -7.1620   10.8260 C   0  0  0  0  0
   13.1760   -6.9470   12.0300 O   0  0  0  0  0
   13.1264   -9.1665   10.5107 H   0  0  0  0  0
   14.7291   -8.8732    9.7596 H   0  0  0  0  0
   14.8734  -10.1045   11.7170 H   0  0  0  0  0
   13.3578   -6.7298    9.9699 H   0  0  0  0  0
   14.8925   -6.6394   10.8886 H   0  0  0  0  0
   13.6016   -7.4694   12.7003 H   0  0  0  0  0
  1  2  1  0  0  0
  1  3  1  0  0  0
  1  5  1  0  0  0
  1  6  1  0  0  0
  2  7  1  0  0  0
  3  4  1  0  0  0
  3  8  1  0  0  0
  3  9  1  0  0  0
  4 10  1  0  0  0
M  END
$$$$
