@<TRIPOS>MOLECULE
EDO_1_B_302
 10 9 0 0 0
SMALL
NO_CHARGES

@<TRIPOS>ATOM
      1 C1         14.1050   -8.6610   10.6530 C.3    302  EDO302      0.0000
      2 O1         14.7480   -9.1710   11.8300 O.3    302  EDO302      0.0000
      3 C2         13.9150   -7.1620   10.8260 C.3    302  EDO302      0.0000
      4 O2         13.1760   -6.9470   12.0300 O.3    302  EDO302      0.0000
      5 H          13.1264   -9.1665   10.5107 H      302  EDO302      0.0000
      6 H          14.7291   -8.8732    9.7596 H      302  EDO302      0.0000
      7 H          14.8734  -10.1045   11.7170 H      302  EDO302      0.0000
      8 H          13.3578   -6.7298    9.9699 H      302  EDO302      0.0000
      9 H          14.8925   -6.6394   10.8886 H      302  EDO302      0.0000
     10 H          13.6016   -7.4694   12.7003 H      302  EDO302      0.0000
@<TRIPOS>BOND
     1     1     2    1
     2     1     3    1
     3     1     5    1
     4     1     6    1
     5     2     7    1
     6     3     4    1
     7     3     8    1
     8     3     9    1
     9     4    10    1

