@<TRIPOS>MOLECULE
CYV_1_A_302
 99 99 0 0 0
SMALL
NO_CHARGES

@<TRIPOS>ATOM
      1 O43        18.5550  -32.9900   21.6270 O.2    302  CYV302      0.0000
      2 C42        19.2210  -32.9880   20.5980 C.2    302  CYV302      0.0000
      3 O44        20.2040  -31.9160   20.3990 O.3    302  CYV302      0.0000
      4 C46        21.5380  -31.9020   20.9580 C.3    302  CYV302      0.0000
      5 C49        22.2930  -30.7170   20.3570 C.3    302  CYV302      0.0000
      6 C48        21.4720  -31.7160   22.4770 C.3    302  CYV302      0.0000
      7 C47        22.2980  -33.1850   20.6050 C.3    302  CYV302      0.0000
      8 N41        19.0770  -33.9100   19.6380 N.am   302  CYV302      0.0000
      9 C39        18.1370  -35.0250   19.7280 C.3    302  CYV302      0.0000
     10 C40        17.8800  -35.4860   18.2910 C.3    302  CYV302      0.0000
     11 O45        19.0710  -36.0030   17.6730 O.3    302  CYV302      0.0000
     12 C37        18.6780  -36.1640   20.5560 C.2    302  CYV302      0.0000
     13 O38        19.8470  -36.5310   20.4560 O.2    302  CYV302      0.0000
     14 N36        17.7910  -36.7150   21.3880 N.am   302  CYV302      0.0000
     15 C32        18.0960  -37.8280   22.2820 C.3    302  CYV302      0.0000
     16 C33        17.7140  -37.3400   23.6930 C.3    302  CYV302      0.0000
     17 C35        17.6110  -38.4600   24.7250 C.3    302  CYV302      0.0000
     18 C34        18.6990  -36.2860   24.2000 C.3    302  CYV302      0.0000
     19 C30        17.3540  -39.0570   21.8210 C.2    302  CYV302      0.0000
     20 O31        16.1320  -39.0630   21.8200 O.2    302  CYV302      0.0000
     21 C29        18.1480  -40.2640   21.3450 C.3    302  CYV302      0.0000
     22 C22        17.3370  -41.5680   21.3190 C.3    302  CYV302      0.0000
     23 C23        18.2420  -42.7650   21.0270 C.3    302  CYV302      0.0000
     24 C24        19.0970  -42.5740   19.7880 C.2    302  CYV302      0.0000
     25 C25        20.2090  -43.3070   19.5460 C.2    302  CYV302      0.0000
     26 C26        21.0060  -43.0590   18.3010 C.3    302  CYV302      0.0000
     27 C27        20.6990  -44.3810   20.4850 C.3    302  CYV302      0.0000
     28 C21        16.6400  -41.7690   22.6430 C.2    302  CYV302      0.0000
     29 O28        17.2210  -41.5070   23.6910 O.2    302  CYV302      0.0000
     30 N20        15.3830  -42.2300   22.6310 N.am   302  CYV302      0.0000
     31 C12        14.6700  -42.4200   23.9000 C.3    302  CYV302      0.0000
     32 C5         14.4150  -43.9070   24.1280 C.3    302  CYV302      0.0000
     33 C6         15.6640  -44.7910   24.1350 C.3    302  CYV302      0.0000
     34 C7         15.3520  -46.1180   24.7990 C.2    302  CYV302      0.0000
     35 O11        16.4340  -47.0280   25.1740 O.3    302  CYV302      0.0000
     36 C9         17.1900  -46.8370   26.3780 C.3    302  CYV302      0.0000
     37 C10        16.3140  -46.9610   27.6120 C.3    302  CYV302      0.0000
     38 O8         14.1970  -46.4520   25.0390 O.2    302  CYV302      0.0000
     39 C19        13.4090  -41.5740   23.7740 C.3    302  CYV302      0.0000
     40 C13        13.2750  -40.2770   24.7040 C.3    302  CYV302      0.0000
     41 C14        13.2600  -40.3100   26.2340 C.3    302  CYV302      0.0000
     42 C15        12.7780  -38.8660   26.6040 C.3    302  CYV302      0.0000
     43 N16        11.8830  -38.5380   25.5150 N.am   302  CYV302      0.0000
     44 C17        12.0490  -39.3830   24.5700 C.2    302  CYV302      0.0000
     45 O18        11.3090  -39.4520   23.6110 O.2    302  CYV302      0.0000
     46 H          23.3308  -30.6384   20.7474 H      302  CYV302      0.0000
     47 H          21.7868  -29.7523   20.5788 H      302  CYV302      0.0000
     48 H          22.3652  -30.7949   19.2503 H      302  CYV302      0.0000
     49 H          22.4837  -31.6322   22.9297 H      302  CYV302      0.0000
     50 H          20.9659  -32.5703   22.9760 H      302  CYV302      0.0000
     51 H          20.9106  -30.7978   22.7555 H      302  CYV302      0.0000
     52 H          23.3428  -33.1669   20.9837 H      302  CYV302      0.0000
     53 H          22.3502  -33.3442   19.5061 H      302  CYV302      0.0000
     54 H          21.8130  -34.0849   21.0410 H      302  CYV302      0.0000
     55 H          19.6768  -33.8495   18.8037 H      302  CYV302      0.0000
     56 H          17.1711  -34.6641   20.1525 H      302  CYV302      0.0000
     57 H          17.4895  -34.6479   17.6750 H      302  CYV302      0.0000
     58 H          17.0988  -36.2770   18.2807 H      302  CYV302      0.0000
     59 H          19.4898  -36.6077   18.2761 H      302  CYV302      0.0000
     60 H          16.8232  -36.3648   21.4035 H      302  CYV302      0.0000
     61 H          19.1858  -38.0624   22.2788 H      302  CYV302      0.0000
     62 H          16.7036  -36.8626   23.6410 H      302  CYV302      0.0000
     63 H          17.4166  -38.0633   25.7465 H      302  CYV302      0.0000
     64 H          18.5456  -39.0618   24.7774 H      302  CYV302      0.0000
     65 H          16.7739  -39.1546   24.4980 H      302  CYV302      0.0000
     66 H          18.4005  -35.8877   25.1956 H      302  CYV302      0.0000
     67 H          18.7630  -35.4118   23.5148 H      302  CYV302      0.0000
     68 H          19.7280  -36.6968   24.3053 H      302  CYV302      0.0000
     69 H          19.0341  -40.3975   22.0074 H      302  CYV302      0.0000
     70 H          18.5437  -40.0292   20.3316 H      302  CYV302      0.0000
     71 H          16.5741  -41.4834   20.5077 H      302  CYV302      0.0000
     72 H          17.6116  -43.6744   20.8920 H      302  CYV302      0.0000
     73 H          18.8933  -42.9452   21.9117 H      302  CYV302      0.0000
     74 H          18.7665  -41.8291   19.0449 H      302  CYV302      0.0000
     75 H          22.0546  -42.7828   18.5496 H      302  CYV302      0.0000
     76 H          20.5887  -42.2368   17.6793 H      302  CYV302      0.0000
     77 H          21.0407  -43.9692   17.6623 H      302  CYV302      0.0000
     78 H          20.9240  -45.3160   19.9256 H      302  CYV302      0.0000
     79 H          19.9726  -44.6587   21.2762 H      302  CYV302      0.0000
     80 H          21.6381  -44.0640   20.9904 H      302  CYV302      0.0000
     81 H          14.9195  -42.4465   21.7381 H      302  CYV302      0.0000
     82 H          15.2541  -42.0380   24.7693 H      302  CYV302      0.0000
     83 H          13.7093  -44.2854   23.3515 H      302  CYV302      0.0000
     84 H          13.8894  -44.0032   25.1075 H      302  CYV302      0.0000
     85 H          16.4829  -44.2908   24.6968 H      302  CYV302      0.0000
     86 H          16.0344  -44.9604   23.1005 H      302  CYV302      0.0000
     87 H          17.6868  -45.8442   26.3668 H      302  CYV302      0.0000
     88 H          17.9999  -47.5951   26.4238 H      302  CYV302      0.0000
     89 H          16.9124  -46.8692   28.5445 H      302  CYV302      0.0000
     90 H          15.7960  -47.9440   27.6491 H      302  CYV302      0.0000
     91 H          15.5332  -46.1707   27.6476 H      302  CYV302      0.0000
     92 H          12.5289  -42.2159   24.0109 H      302  CYV302      0.0000
     93 H          13.2533  -41.2558   22.7176 H      302  CYV302      0.0000
     94 H          14.1422  -39.6314   24.4103 H      302  CYV302      0.0000
     95 H          14.2594  -40.5386   26.6664 H      302  CYV302      0.0000
     96 H          12.5349  -41.0744   26.5971 H      302  CYV302      0.0000
     97 H          13.6407  -38.1628   26.6520 H      302  CYV302      0.0000
     98 H          12.2684  -38.8609   27.5936 H      302  CYV302      0.0000
     99 H          11.1834  -37.7855   25.4972 H      302  CYV302      0.0000
@<TRIPOS>BOND
     1     1     2    2
     2     2     3    1
     3     2     8    1
     4     3     4    1
     5     4     5    1
     6     4     6    1
     7     4     7    1
     8     5    46    1
     9     5    47    1
    10     5    48    1
    11     6    49    1
    12     6    50    1
    13     6    51    1
    14     7    52    1
    15     7    53    1
    16     7    54    1
    17     8     9    1
    18     8    55    1
    19     9    10    1
    20     9    12    1
    21     9    56    1
    22    10    11    1
    23    10    57    1
    24    10    58    1
    25    11    59    1
    26    12    13    2
    27    12    14    1
    28    14    15    1
    29    14    60    1
    30    15    16    1
    31    15    19    1
    32    15    61    1
    33    16    17    1
    34    16    18    1
    35    16    62    1
    36    17    63    1
    37    17    64    1
    38    17    65    1
    39    18    66    1
    40    18    67    1
    41    18    68    1
    42    19    20    2
    43    19    21    1
    44    21    22    1
    45    21    69    1
    46    21    70    1
    47    22    23    1
    48    22    28    1
    49    22    71    1
    50    23    24    1
    51    23    72    1
    52    23    73    1
    53    24    25    2
    54    24    74    1
    55    25    26    1
    56    25    27    1
    57    26    75    1
    58    26    76    1
    59    26    77    1
    60    27    78    1
    61    27    79    1
    62    27    80    1
    63    28    29    2
    64    28    30    1
    65    30    31    1
    66    30    81    1
    67    31    32    1
    68    31    39    1
    69    31    82    1
    70    32    33    1
    71    32    83    1
    72    32    84    1
    73    33    34    1
    74    33    85    1
    75    33    86    1
    76    34    35    1
    77    34    38    2
    78    35    36    1
    79    36    37    1
    80    36    87    1
    81    36    88    1
    82    37    89    1
    83    37    90    1
    84    37    91    1
    85    39    40    1
    86    39    92    1
    87    39    93    1
    88    40    41    1
    89    40    44    1
    90    40    94    1
    91    41    42    1
    92    41    95    1
    93    41    96    1
    94    42    43    1
    95    42    97    1
    96    42    98    1
    97    43    44    1
    98    43    99    1
    99    44    45    2

