DMS_1_A_402
  -ISIS-            3D

 10  9  0  0  0  0  0  0  0  0  1 V2000
    6.2990   -1.1080   -6.2950 S   0  0  0  0  0
    7.3230   -0.9020   -7.3440 O   0  0  0  0  0
    7.1310   -0.9330   -4.7110 C   0  0  0  0  0
    5.9950   -2.8400   -6.2170 C   0  0  0  0  0
    6.4365   -1.2073   -3.8906 H   0  0  0  0  0
    7.4453    0.1226   -4.5788 H   0  0  0  0  0
    8.0269   -1.5857   -4.6735 H   0  0  0  0  0
    5.3309   -3.0685   -5.3582 H   0  0  0  0  0
    6.9477   -3.3965   -6.1042 H   0  0  0  0  0
    5.4951   -3.1682   -7.1512 H   0  0  0  0  0
  1  2  2  0  0  0
  1  3  1  0  0  0
  1  4  1  0  0  0
  3  5  1  0  0  0
  3  6  1  0  0  0
  3  7  1  0  0  0
  4  8  1  0  0  0
  4  9  1  0  0  0
  4 10  1  0  0  0
M  END
$$$$
