@<TRIPOS>MOLECULE
DMS_1_A_402
 10 9 0 0 0
SMALL
NO_CHARGES

@<TRIPOS>ATOM
      1 S           6.2990   -1.1080   -6.2950 S.o    402  DMS402      0.0000
      2 O           7.3230   -0.9020   -7.3440 O.2    402  DMS402      0.0000
      3 C1          7.1310   -0.9330   -4.7110 C.3    402  DMS402      0.0000
      4 C2          5.9950   -2.8400   -6.2170 C.3    402  DMS402      0.0000
      5 H           6.4365   -1.2073   -3.8906 H      402  DMS402      0.0000
      6 H           7.4453    0.1226   -4.5788 H      402  DMS402      0.0000
      7 H           8.0269   -1.5857   -4.6735 H      402  DMS402      0.0000
      8 H           5.3309   -3.0685   -5.3582 H      402  DMS402      0.0000
      9 H           6.9477   -3.3965   -6.1042 H      402  DMS402      0.0000
     10 H           5.4951   -3.1682   -7.1512 H      402  DMS402      0.0000
@<TRIPOS>BOND
     1     1     2    2
     2     1     3    1
     3     1     4    1
     4     3     5    1
     5     3     6    1
     6     3     7    1
     7     4     8    1
     8     4     9    1
     9     4    10    1

