DMS_2_A_401
  -ISIS-            3D

 10  9  0  0  0  0  0  0  0  0  1 V2000
   -6.8890  -28.1590  -21.3500 S   0  0  0  0  0
   -7.6620  -27.2200  -22.1970 O   0  0  0  0  0
   -5.6150  -28.7820  -22.4140 C   0  0  0  0  0
   -5.9280  -27.1450  -20.2860 C   0  0  0  0  0
   -4.8940  -29.3830  -21.8231 H   0  0  0  0  0
   -5.0792  -27.9448  -22.9067 H   0  0  0  0  0
   -6.0690  -29.4296  -23.1917 H   0  0  0  0  0
   -5.2042  -27.7698  -19.7238 H   0  0  0  0  0
   -6.5948  -26.6326  -19.5627 H   0  0  0  0  0
   -5.3759  -26.3816  -20.8718 H   0  0  0  0  0
  1  2  2  0  0  0
  1  3  1  0  0  0
  1  4  1  0  0  0
  3  5  1  0  0  0
  3  6  1  0  0  0
  3  7  1  0  0  0
  4  8  1  0  0  0
  4  9  1  0  0  0
  4 10  1  0  0  0
M  END
$$$$
