@<TRIPOS>MOLECULE
DMS_2_A_401
 10 9 0 0 0
SMALL
NO_CHARGES

@<TRIPOS>ATOM
      1 S          -6.8890  -28.1590  -21.3500 S.o    401  DMS401      0.0000
      2 O          -7.6620  -27.2200  -22.1970 O.2    401  DMS401      0.0000
      3 C1         -5.6150  -28.7820  -22.4140 C.3    401  DMS401      0.0000
      4 C2         -5.9280  -27.1450  -20.2860 C.3    401  DMS401      0.0000
      5 H          -4.8940  -29.3830  -21.8231 H      401  DMS401      0.0000
      6 H          -5.0792  -27.9448  -22.9067 H      401  DMS401      0.0000
      7 H          -6.0690  -29.4296  -23.1917 H      401  DMS401      0.0000
      8 H          -5.2042  -27.7698  -19.7238 H      401  DMS401      0.0000
      9 H          -6.5948  -26.6326  -19.5627 H      401  DMS401      0.0000
     10 H          -5.3759  -26.3816  -20.8718 H      401  DMS401      0.0000
@<TRIPOS>BOND
     1     1     2    2
     2     1     3    1
     3     1     4    1
     4     3     5    1
     5     3     6    1
     6     3     7    1
     7     4     8    1
     8     4     9    1
     9     4    10    1

