DMS_1_A_402
  -ISIS-            3D

 10  9  0  0  0  0  0  0  0  0  1 V2000
    6.1660   -1.0040   -6.2330 S   0  0  0  0  0
    7.0810   -0.7580   -7.3770 O   0  0  0  0  0
    7.1400   -0.8920   -4.7270 C   0  0  0  0  0
    5.8230   -2.7410   -6.1880 C   0  0  0  0  0
    6.5174   -1.1823   -3.8561 H   0  0  0  0  0
    7.4841    0.1538   -4.5918 H   0  0  0  0  0
    8.0234   -1.5599   -4.7918 H   0  0  0  0  0
    5.2349   -2.9850   -5.2798 H   0  0  0  0  0
    6.7688   -3.3207   -6.1827 H   0  0  0  0  0
    5.2320   -3.0219   -7.0837 H   0  0  0  0  0
  1  2  2  0  0  0
  1  3  1  0  0  0
  1  4  1  0  0  0
  3  5  1  0  0  0
  3  6  1  0  0  0
  3  7  1  0  0  0
  4  8  1  0  0  0
  4  9  1  0  0  0
  4 10  1  0  0  0
M  END
$$$$
