@<TRIPOS>MOLECULE
DMS_2_A_403
 10 9 0 0 0
SMALL
NO_CHARGES

@<TRIPOS>ATOM
      1 S          -2.5310  -18.7130   -8.0340 S.o    403  DMS403      0.0000
      2 O          -3.7760  -18.8380   -8.9540 O.2    403  DMS403      0.0000
      3 C1         -1.1990  -18.3080   -9.1430 C.3    403  DMS403      0.0000
      4 C2         -2.0440  -20.3600   -7.7000 C.3    403  DMS403      0.0000
      5 H          -0.2305  -18.3627   -8.6048 H      403  DMS403      0.0000
      6 H          -1.3398  -17.2744   -9.5205 H      403  DMS403      0.0000
      7 H          -1.1841  -19.0069  -10.0038 H      403  DMS403      0.0000
      8 H          -1.0576  -20.3683   -7.1932 H      403  DMS403      0.0000
      9 H          -1.9802  -20.9474   -8.6387 H      403  DMS403      0.0000
     10 H          -2.7904  -20.8351   -7.0307 H      403  DMS403      0.0000
@<TRIPOS>BOND
     1     1     2    2
     2     1     3    1
     3     1     4    1
     4     3     5    1
     5     3     6    1
     6     3     7    1
     7     4     8    1
     8     4     9    1
     9     4    10    1

