@<TRIPOS>MOLECULE
DMS_2_A_401
 10 9 0 0 0
SMALL
NO_CHARGES

@<TRIPOS>ATOM
      1 S          -6.9270  -28.0080  -21.5860 S.o    401  DMS401      0.0000
      2 O          -7.6360  -27.0080  -22.4010 O.2    401  DMS401      0.0000
      3 C1         -5.6410  -28.6360  -22.6460 C.3    401  DMS401      0.0000
      4 C2         -5.9270  -27.0860  -20.4840 C.3    401  DMS401      0.0000
      5 H          -4.9576  -29.2861  -22.0623 H      401  DMS401      0.0000
      6 H          -5.0640  -27.8001  -23.0922 H      401  DMS401      0.0000
      7 H          -6.0972  -29.2357  -23.4601 H      401  DMS401      0.0000
      8 H          -5.2387  -27.7652  -19.9406 H      401  DMS401      0.0000
      9 H          -6.5725  -26.5688  -19.7449 H      401  DMS401      0.0000
     10 H          -5.3341  -26.3279  -21.0359 H      401  DMS401      0.0000
@<TRIPOS>BOND
     1     1     2    2
     2     1     3    1
     3     1     4    1
     4     3     5    1
     5     3     6    1
     6     3     7    1
     7     4     8    1
     8     4     9    1
     9     4    10    1

