@<TRIPOS>MOLECULE
DMS_1_A_402
 10 9 0 0 0
SMALL
NO_CHARGES

@<TRIPOS>ATOM
      1 S           5.8450   -0.9250   -6.4810 S.o    402  DMS402      0.0000
      2 O           6.4900   -0.4020   -7.7340 O.2    402  DMS402      0.0000
      3 C1          7.1240   -1.0050   -5.2520 C.3    402  DMS402      0.0000
      4 C2          5.5990   -2.6610   -6.7300 C.3    402  DMS402      0.0000
      5 H           6.7392   -1.5085   -4.3415 H      402  DMS402      0.0000
      6 H           7.4418    0.0238   -4.9857 H      402  DMS402      0.0000
      7 H           7.9988   -1.5643   -5.6418 H      402  DMS402      0.0000
      8 H           5.2465   -3.1298   -5.7884 H      402  DMS402      0.0000
      9 H           6.5451   -3.1429   -7.0506 H      402  DMS402      0.0000
     10 H           4.8311   -2.8142   -7.5157 H      402  DMS402      0.0000
@<TRIPOS>BOND
     1     1     2    2
     2     1     3    1
     3     1     4    1
     4     3     5    1
     5     3     6    1
     6     3     7    1
     7     4     8    1
     8     4     9    1
     9     4    10    1

