DMS_1_A_405
  -ISIS-            3D

 10  9  0  0  0  0  0  0  0  0  1 V2000
    9.2500   -5.4340   26.7440 S   0  0  0  0  0
    9.5540   -3.9620   26.7390 O   0  0  0  0  0
    7.8330   -5.6430   25.6950 C   0  0  0  0  0
   10.4610   -6.1740   25.6810 C   0  0  0  0  0
    7.6425   -6.7235   25.5310 H   0  0  0  0  0
    7.9978   -5.1444   24.7181 H   0  0  0  0  0
    6.9450   -5.1933   26.1846 H   0  0  0  0  0
   10.2137   -7.2427   25.5156 H   0  0  0  0  0
   11.4591   -6.1081   26.1603 H   0  0  0  0  0
   10.4936   -5.6473   24.7055 H   0  0  0  0  0
  1  2  2  0  0  0
  1  3  1  0  0  0
  1  4  1  0  0  0
  3  5  1  0  0  0
  3  6  1  0  0  0
  3  7  1  0  0  0
  4  8  1  0  0  0
  4  9  1  0  0  0
  4 10  1  0  0  0
M  END
$$$$
