@<TRIPOS>MOLECULE
DMS_1_A_401
 10 9 0 0 0
SMALL
NO_CHARGES

@<TRIPOS>ATOM
      1 S           7.7640  -28.3790   20.7700 S.o    401  DMS401      0.0000
      2 O           8.5580  -27.4740   21.6540 O.2    401  DMS401      0.0000
      3 C1          6.6330  -29.2750   21.8030 C.3    401  DMS401      0.0000
      4 C2          6.5600  -27.3500   19.9590 C.3    401  DMS401      0.0000
      5 H           5.9278  -29.8565   21.1746 H      401  DMS401      0.0000
      6 H           6.0632  -28.5767   22.4498 H      401  DMS401      0.0000
      7 H           7.2023  -29.9777   22.4453 H      401  DMS401      0.0000
      8 H           5.8526  -27.9805   19.3825 H      401  DMS401      0.0000
      9 H           7.0781  -26.6626   19.2594 H      401  DMS401      0.0000
     10 H           5.9985  -26.7503   20.7045 H      401  DMS401      0.0000
@<TRIPOS>BOND
     1     1     2    2
     2     1     3    1
     3     1     4    1
     4     3     5    1
     5     3     6    1
     6     3     7    1
     7     4     8    1
     8     4     9    1
     9     4    10    1

