@<TRIPOS>MOLECULE
DMS_1_A_405
 10 9 0 0 0
SMALL
NO_CHARGES

@<TRIPOS>ATOM
      1 S           9.2500   -5.4340   26.7440 S.o    405  DMS405      0.0000
      2 O           9.5540   -3.9620   26.7390 O.2    405  DMS405      0.0000
      3 C1          7.8330   -5.6430   25.6950 C.3    405  DMS405      0.0000
      4 C2         10.4610   -6.1740   25.6810 C.3    405  DMS405      0.0000
      5 H           7.6425   -6.7235   25.5310 H      405  DMS405      0.0000
      6 H           7.9978   -5.1444   24.7181 H      405  DMS405      0.0000
      7 H           6.9450   -5.1933   26.1846 H      405  DMS405      0.0000
      8 H          10.2137   -7.2427   25.5156 H      405  DMS405      0.0000
      9 H          11.4591   -6.1081   26.1603 H      405  DMS405      0.0000
     10 H          10.4936   -5.6473   24.7055 H      405  DMS405      0.0000
@<TRIPOS>BOND
     1     1     2    2
     2     1     3    1
     3     1     4    1
     4     3     5    1
     5     3     6    1
     6     3     7    1
     7     4     8    1
     8     4     9    1
     9     4    10    1

