@<TRIPOS>MOLECULE
DAZ_1_A_701
 7 6 0 0 0
SMALL
NO_CHARGES

@<TRIPOS>ATOM
      1 ZN         33.4730  -26.5870   -7.9680 Zn     701  DAZ701      2.0000
      2 N1         34.7100  -25.1060   -8.2010 N.pl3  701  DAZ701      0.0000
      3 N2         33.9630  -27.5020   -6.2970 N.pl3  701  DAZ701      0.0000
      4 H          34.4329  -24.6255   -9.0511 H      701  DAZ701      0.0000
      5 H          35.6244  -25.5128   -8.3708 H      701  DAZ701      0.0000
      6 H          33.2458  -28.2000   -6.1269 H      701  DAZ701      0.0000
      7 H          34.8285  -27.9997   -6.4807 H      701  DAZ701      0.0000
@<TRIPOS>BOND
     1     1     2    1
     2     1     3    1
     3     2     4    1
     4     2     5    1
     5     3     6    1
     6     3     7    1

