@<TRIPOS>MOLECULE
DMS_1_B_603
 10 9 0 0 0
SMALL
NO_CHARGES

@<TRIPOS>ATOM
      1 S          47.6300  -55.9280  -36.2940 S.o    603  DMS603      0.0000
      2 O          47.9470  -55.2450  -35.0430 O.2    603  DMS603      0.0000
      3 C1         48.2460  -55.3370  -37.8120 C.3    603  DMS603      0.0000
      4 C2         46.6090  -57.3680  -36.2770 C.3    603  DMS603      0.0000
      5 H          47.8972  -55.9871  -38.6398 H      603  DMS603      0.0000
      6 H          49.3548  -55.3385  -37.7900 H      603  DMS603      0.0000
      7 H          47.8840  -54.3029  -37.9837 H      603  DMS603      0.0000
      8 H          46.4782  -57.7479  -37.3105 H      603  DMS603      0.0000
      9 H          45.6167  -57.1138  -35.8519 H      603  DMS603      0.0000
     10 H          47.0860  -58.1532  -35.6558 H      603  DMS603      0.0000
@<TRIPOS>BOND
     1     1     2    2
     2     1     3    1
     3     1     4    1
     4     3     5    1
     5     3     6    1
     6     3     7    1
     7     4     8    1
     8     4     9    1
     9     4    10    1

