@<TRIPOS>MOLECULE
DMS_1_A_604
 10 9 0 0 0
SMALL
NO_CHARGES

@<TRIPOS>ATOM
      1 S          35.8270  -32.4260   -7.4000 S.o    604  DMS604      0.0000
      2 O          35.5470  -33.6450   -8.1500 O.2    604  DMS604      0.0000
      3 C1         34.6800  -31.1080   -7.4130 C.3    604  DMS604      0.0000
      4 C2         37.3080  -32.3000   -6.4710 C.3    604  DMS604      0.0000
      5 H          35.1682  -30.1943   -7.8082 H      604  DMS604      0.0000
      6 H          34.3231  -30.9159   -6.3807 H      604  DMS604      0.0000
      7 H          33.8153  -31.3684   -8.0566 H      604  DMS604      0.0000
      8 H          37.8987  -31.4327   -6.8297 H      604  DMS604      0.0000
      9 H          37.9067  -33.2258   -6.5911 H      604  DMS604      0.0000
     10 H          37.0626  -32.1589   -5.3989 H      604  DMS604      0.0000
@<TRIPOS>BOND
     1     1     2    2
     2     1     3    1
     3     1     4    1
     4     3     5    1
     5     3     6    1
     6     3     7    1
     7     4     8    1
     8     4     9    1
     9     4    10    1

