@<TRIPOS>MOLECULE
DMS_1_B_606
 10 9 0 0 0
SMALL
NO_CHARGES

@<TRIPOS>ATOM
      1 S          48.0410  -39.6480  -17.5570 S.o    606  DMS606      0.0000
      2 O          47.7880  -39.5490  -16.1110 O.2    606  DMS606      0.0000
      3 C1         47.4790  -38.3690  -18.6170 C.3    606  DMS606      0.0000
      4 C2         48.9030  -41.0230  -18.1970 C.3    606  DMS606      0.0000
      5 H          47.7509  -38.6040  -19.6660 H      606  DMS606      0.0000
      6 H          47.9505  -37.4090  -18.3237 H      606  DMS606      0.0000
      7 H          46.3767  -38.2774  -18.5371 H      606  DMS606      0.0000
      8 H          48.9980  -40.9286  -19.2977 H      606  DMS606      0.0000
      9 H          48.3498  -41.9539  -17.9573 H      606  DMS606      0.0000
     10 H          49.9152  -41.0707  -17.7464 H      606  DMS606      0.0000
@<TRIPOS>BOND
     1     1     2    2
     2     1     3    1
     3     1     4    1
     4     3     5    1
     5     3     6    1
     6     3     7    1
     7     4     8    1
     8     4     9    1
     9     4    10    1

