@<TRIPOS>MOLECULE
DMS_1_A_605
 10 9 0 0 0
SMALL
NO_CHARGES

@<TRIPOS>ATOM
      1 S          34.7390  -46.7390  -27.8050 S.o    605  DMS605      0.0000
      2 O          34.2720  -46.3030  -26.4850 O.2    605  DMS605      0.0000
      3 C1         35.7920  -45.7080  -28.7680 C.3    605  DMS605      0.0000
      4 C2         34.2500  -48.2990  -28.4200 C.3    605  DMS605      0.0000
      5 H          36.0327  -46.2088  -29.7276 H      605  DMS605      0.0000
      6 H          36.7311  -45.5135  -28.2110 H      605  DMS605      0.0000
      7 H          35.2807  -44.7460  -28.9753 H      605  DMS605      0.0000
      8 H          34.6908  -48.4630  -29.4242 H      605  DMS605      0.0000
      9 H          33.1443  -48.3392  -28.4960 H      605  DMS605      0.0000
     10 H          34.6002  -49.0963  -27.7332 H      605  DMS605      0.0000
@<TRIPOS>BOND
     1     1     2    2
     2     1     3    1
     3     1     4    1
     4     3     5    1
     5     3     6    1
     6     3     7    1
     7     4     8    1
     8     4     9    1
     9     4    10    1

