DMS_1_A_605
  -ISIS-            3D

 10  9  0  0  0  0  0  0  0  0  1 V2000
   34.7390  -46.7390  -27.8050 S   0  0  0  0  0
   34.2720  -46.3030  -26.4850 O   0  0  0  0  0
   35.7920  -45.7080  -28.7680 C   0  0  0  0  0
   34.2500  -48.2990  -28.4200 C   0  0  0  0  0
   36.0327  -46.2088  -29.7276 H   0  0  0  0  0
   36.7311  -45.5135  -28.2110 H   0  0  0  0  0
   35.2807  -44.7460  -28.9753 H   0  0  0  0  0
   34.6908  -48.4630  -29.4242 H   0  0  0  0  0
   33.1443  -48.3392  -28.4960 H   0  0  0  0  0
   34.6002  -49.0963  -27.7332 H   0  0  0  0  0
  1  2  2  0  0  0
  1  3  1  0  0  0
  1  4  1  0  0  0
  3  5  1  0  0  0
  3  6  1  0  0  0
  3  7  1  0  0  0
  4  8  1  0  0  0
  4  9  1  0  0  0
  4 10  1  0  0  0
M  END
$$$$
