@<TRIPOS>MOLECULE
FMT_1_A_512
 4 3 0 0 0
SMALL
NO_CHARGES

@<TRIPOS>ATOM
      1 C          30.5230   12.6610   50.7790 C.2    512  FMT512      0.0000
      2 O1         29.6720   11.8690   51.1370 O.2    512  FMT512     -0.5000
      3 O2         30.7410   13.0250   49.5360 O.3    512  FMT512     -0.5000
      4 H          31.1950   13.1334   51.5901 H      512  FMT512      0.0000
@<TRIPOS>BOND
     1     1     2   ar
     2     1     3   ar
     3     1     4    1

