ZZA_1_A_201
  -ISIS-            3D

 21 22  0  0  0  0  0  0  0  0  1 V2000
  -43.2160  -31.6400    3.4130 O   0  0  0  0  0
  -43.6390  -32.5510    2.6510 C   0  0  0  0  0
  -44.2130  -33.5170    3.1710 O   0  0  0  0  0
  -43.4450  -32.4850    1.1500 C   0  0  0  0  0
  -42.6260  -31.6190    0.4380 C   0  0  0  0  0
  -42.7020  -31.9310   -0.8250 N   0  0  0  0  0
  -43.5410  -32.8880   -0.9500 N   0  0  0  0  0
  -43.9950  -33.3080    0.1690 C   0  0  0  0  0
  -43.9070  -33.4450   -2.1830 C   0  0  0  0  0
  -45.0420  -34.2030   -2.2330 C   0  0  0  0  0
  -45.4250  -34.7410   -3.4310 C   0  0  0  0  0
  -44.6510  -34.4910   -4.5440 C   0  0  0  0  0
  -43.5280  -33.7060   -4.4640 C   0  0  0  0  0
  -43.1460  -33.1840   -3.2800 C   0  0  0  0  0
  -41.9971  -30.8167    0.8480 H   0  0  0  0  0
  -44.6824  -34.1464    0.3199 H   0  0  0  0  0
  -45.6812  -34.3991   -1.3594 H   0  0  0  0  0
  -46.3341  -35.3612   -3.5082 H   0  0  0  0  0
  -44.9445  -34.9226   -5.5166 H   0  0  0  0  0
  -42.9321  -33.5077   -5.3715 H   0  0  0  0  0
  -42.2384  -32.5618   -3.2149 H   0  0  0  0  0
  1  2  2  0  0  0
  2  3  2  0  0  0
  2  4  1  0  0  0
  4  5  1  0  0  0
  4  8  2  0  0  0
  5  6  2  0  0  0
  5 15  1  0  0  0
  6  7  1  0  0  0
  7  8  1  0  0  0
  7  9  1  0  0  0
  8 16  1  0  0  0
  9 10  2  0  0  0
  9 14  1  0  0  0
 10 11  1  0  0  0
 10 17  1  0  0  0
 11 12  2  0  0  0
 11 18  1  0  0  0
 12 13  1  0  0  0
 12 19  1  0  0  0
 13 14  2  0  0  0
 13 20  1  0  0  0
 14 21  1  0  0  0
M  END
$$$$
