@<TRIPOS>MOLECULE
ZZA_1_A_201
 21 22 0 0 0
SMALL
NO_CHARGES

@<TRIPOS>ATOM
      1 O1        -43.2160  -31.6400    3.4130 O.co2  201  ZZA201     -0.5000
      2 C2        -43.6390  -32.5510    2.6510 C.2    201  ZZA201      0.0000
      3 O3        -44.2130  -33.5170    3.1710 O.co2  201  ZZA201     -0.5000
      4 C4        -43.4450  -32.4850    1.1500 C.ar   201  ZZA201      0.0000
      5 C5        -42.6260  -31.6190    0.4380 C.ar   201  ZZA201      0.0000
      6 N6        -42.7020  -31.9310   -0.8250 N.ar   201  ZZA201      0.0000
      7 N7        -43.5410  -32.8880   -0.9500 N.ar   201  ZZA201      0.0000
      8 C8        -43.9950  -33.3080    0.1690 C.ar   201  ZZA201      0.0000
      9 C9        -43.9070  -33.4450   -2.1830 C.ar   201  ZZA201      0.0000
     10 C10       -45.0420  -34.2030   -2.2330 C.ar   201  ZZA201      0.0000
     11 C11       -45.4250  -34.7410   -3.4310 C.ar   201  ZZA201      0.0000
     12 C12       -44.6510  -34.4910   -4.5440 C.ar   201  ZZA201      0.0000
     13 C13       -43.5280  -33.7060   -4.4640 C.ar   201  ZZA201      0.0000
     14 C14       -43.1460  -33.1840   -3.2800 C.ar   201  ZZA201      0.0000
     15 H         -41.9971  -30.8167    0.8480 H      201  ZZA201      0.0000
     16 H         -44.6824  -34.1464    0.3199 H      201  ZZA201      0.0000
     17 H         -45.6812  -34.3991   -1.3594 H      201  ZZA201      0.0000
     18 H         -46.3341  -35.3612   -3.5082 H      201  ZZA201      0.0000
     19 H         -44.9445  -34.9226   -5.5166 H      201  ZZA201      0.0000
     20 H         -42.9321  -33.5077   -5.3715 H      201  ZZA201      0.0000
     21 H         -42.2384  -32.5618   -3.2149 H      201  ZZA201      0.0000
@<TRIPOS>BOND
     1     1     2   ar
     2     2     3   ar
     3     2     4    1
     4     4     5   ar
     5     4     8   ar
     6     5     6   ar
     7     5    15    1
     8     6     7   ar
     9     7     8   ar
    10     7     9    1
    11     8    16    1
    12     9    10   ar
    13     9    14   ar
    14    10    11   ar
    15    10    17    1
    16    11    12   ar
    17    11    18    1
    18    12    13   ar
    19    12    19    1
    20    13    14   ar
    21    13    20    1
    22    14    21    1

