DMS_1_A_1003
  -ISIS-            3D

 10  9  0  0  0  0  0  0  0  0  1 V2000
    5.9040   -1.0600   -6.3680 S   0  0  0  0  0
    6.5550   -0.5290   -7.6180 O   0  0  0  0  0
    7.1570   -1.0430   -5.1100 C   0  0  0  0  0
    5.7800   -2.8180   -6.5750 C   0  0  0  0  0
    6.7816   -1.5511   -4.1981 H   0  0  0  0  0
    7.4080    0.0074   -4.8569 H   0  0  0  0  0
    8.0721   -1.5564   -5.4691 H   0  0  0  0  0
    5.4356   -3.2850   -5.6295 H   0  0  0  0  0
    6.7633   -3.2438   -6.8608 H   0  0  0  0  0
    5.0436   -3.0420   -7.3738 H   0  0  0  0  0
  1  2  2  0  0  0
  1  3  1  0  0  0
  1  4  1  0  0  0
  3  5  1  0  0  0
  3  6  1  0  0  0
  3  7  1  0  0  0
  4  8  1  0  0  0
  4  9  1  0  0  0
  4 10  1  0  0  0
M  END
$$$$
