@<TRIPOS>MOLECULE
DMS_2_A_1003
 10 9 0 0 0
SMALL
NO_CHARGES

@<TRIPOS>ATOM
      1 S          -5.9040   -1.0600    6.3680 S.o   1003  DMS1003      0.0000
      2 O          -6.5550   -0.5290    7.6180 O.2   1003  DMS1003      0.0000
      3 C1         -7.1570   -1.0430    5.1100 C.3   1003  DMS1003      0.0000
      4 C2         -5.7800   -2.8180    6.5750 C.3   1003  DMS1003      0.0000
      5 H          -6.7816   -1.5511    4.1981 H     1003  DMS1003      0.0000
      6 H          -7.4080    0.0074    4.8569 H     1003  DMS1003      0.0000
      7 H          -8.0721   -1.5564    5.4691 H     1003  DMS1003      0.0000
      8 H          -5.4356   -3.2850    5.6295 H     1003  DMS1003      0.0000
      9 H          -6.7633   -3.2438    6.8608 H     1003  DMS1003      0.0000
     10 H          -5.0436   -3.0420    7.3738 H     1003  DMS1003      0.0000
@<TRIPOS>BOND
     1     1     2    2
     2     1     3    1
     3     1     4    1
     4     3     5    1
     5     3     6    1
     6     3     7    1
     7     4     8    1
     8     4     9    1
     9     4    10    1

