@<TRIPOS>MOLECULE
DMS_1_A_1002
 10 9 0 0 0
SMALL
NO_CHARGES

@<TRIPOS>ATOM
      1 S           7.4900  -28.1880   21.3470 S.o   1002  DMS1002      0.0000
      2 O           8.0470  -27.1820   22.3180 O.2   1002  DMS1002      0.0000
      3 C1          6.2530  -29.1060   22.2330 C.3   1002  DMS1002      0.0000
      4 C2          6.3990  -27.2970   20.2620 C.3   1002  DMS1002      0.0000
      5 H           5.7075  -29.7735   21.5348 H     1002  DMS1002      0.0000
      6 H           5.5354  -28.4157   22.7214 H     1002  DMS1002      0.0000
      7 H           6.7440  -29.7260   23.0107 H     1002  DMS1002      0.0000
      8 H           5.8510  -28.0091   19.6114 H     1002  DMS1002      0.0000
      9 H           6.9956  -26.6143   19.6228 H     1002  DMS1002      0.0000
     10 H           5.6732  -26.6990   20.8499 H     1002  DMS1002      0.0000
@<TRIPOS>BOND
     1     1     2    2
     2     1     3    1
     3     1     4    1
     4     3     5    1
     5     3     6    1
     6     3     7    1
     7     4     8    1
     8     4     9    1
     9     4    10    1

