DMS_1_A_1005
  -ISIS-            3D

 10  9  0  0  0  0  0  0  0  0  1 V2000
    6.0330    0.4980   17.9470 S   0  0  0  0  0
    5.3720    1.6830   18.6170 O   0  0  0  0  0
    7.5640    1.0790   17.3110 C   0  0  0  0  0
    6.7130   -0.4950   19.2490 C   0  0  0  0  0
    8.1661    0.2272   16.9339 H   0  0  0  0  0
    8.1350    1.6153   18.0964 H   0  0  0  0  0
    7.3708    1.7763   16.4702 H   0  0  0  0  0
    7.3371   -1.3055   18.8202 H   0  0  0  0  0
    5.8859   -0.9521   19.8299 H   0  0  0  0  0
    7.3298    0.1262   19.9304 H   0  0  0  0  0
  1  2  2  0  0  0
  1  3  1  0  0  0
  1  4  1  0  0  0
  3  5  1  0  0  0
  3  6  1  0  0  0
  3  7  1  0  0  0
  4  8  1  0  0  0
  4  9  1  0  0  0
  4 10  1  0  0  0
M  END
$$$$
