@<TRIPOS>MOLECULE
DMS_1_A_401
 10 9 0 0 0
SMALL
NO_CHARGES

@<TRIPOS>ATOM
      1 S           6.9780  -27.9840   21.4740 S.o    401  DMS401      0.0000
      2 O           7.6730  -26.9710   22.3110 O.2    401  DMS401      0.0000
      3 C1          5.6510  -28.6000   22.4850 C.3    401  DMS401      0.0000
      4 C2          6.0160  -27.0900   20.3160 C.3    401  DMS401      0.0000
      5 H           4.9949  -29.2610   21.8826 H      401  DMS401      0.0000
      6 H           5.0533  -27.7594   22.8937 H      401  DMS401      0.0000
      7 H           6.0731  -29.1859   23.3269 H      401  DMS401      0.0000
      8 H           5.3546  -27.7839   19.7580 H      401  DMS401      0.0000
      9 H           6.6871  -26.5810   19.5942 H      401  DMS401      0.0000
     10 H           5.3970  -26.3265   20.8304 H      401  DMS401      0.0000
@<TRIPOS>BOND
     1     1     2    2
     2     1     3    1
     3     1     4    1
     4     3     5    1
     5     3     6    1
     6     3     7    1
     7     4     8    1
     8     4     9    1
     9     4    10    1

