@<TRIPOS>MOLECULE
DMS_1_A_403
 10 9 0 0 0
SMALL
NO_CHARGES

@<TRIPOS>ATOM
      1 S           2.5450  -18.7020    7.9810 S.o    403  DMS403      0.0000
      2 O           3.8300  -18.8020    8.8790 O.2    403  DMS403      0.0000
      3 C1          1.2510  -18.1100    9.0500 C.3    403  DMS403      0.0000
      4 C2          1.9510  -20.3470    7.8770 C.3    403  DMS403      0.0000
      5 H           0.2718  -18.1794    8.5335 H      403  DMS403      0.0000
      6 H           1.4458  -17.0476    9.3027 H      403  DMS403      0.0000
      7 H           1.2192  -18.7015    9.9880 H      403  DMS403      0.0000
      8 H           0.9504  -20.3609    7.3985 H      403  DMS403      0.0000
      9 H           1.8841  -20.8051    8.8851 H      403  DMS403      0.0000
     10 H           2.6469  -20.9491    7.2576 H      403  DMS403      0.0000
@<TRIPOS>BOND
     1     1     2    2
     2     1     3    1
     3     1     4    1
     4     3     5    1
     5     3     6    1
     6     3     7    1
     7     4     8    1
     8     4     9    1
     9     4    10    1

