DMS_1_A_402
  -ISIS-            3D

 10  9  0  0  0  0  0  0  0  0  1 V2000
    5.9970    0.3920   18.2020 S   0  0  0  0  0
    7.0260    0.9550   17.3090 O   0  0  0  0  0
    6.7410    0.0800   19.8210 C   0  0  0  0  0
    4.8720    1.7190   18.7110 C   0  0  0  0  0
    5.9592   -0.2546   20.5328 H   0  0  0  0  0
    7.2228    1.0036   20.2028 H   0  0  0  0  0
    7.5065   -0.7168   19.7227 H   0  0  0  0  0
    4.1508    1.3303   19.4585 H   0  0  0  0  0
    4.3142    2.0834   17.8241 H   0  0  0  0  0
    5.4489    2.5589   19.1499 H   0  0  0  0  0
  1  2  2  0  0  0
  1  3  1  0  0  0
  1  4  1  0  0  0
  3  5  1  0  0  0
  3  6  1  0  0  0
  3  7  1  0  0  0
  4  8  1  0  0  0
  4  9  1  0  0  0
  4 10  1  0  0  0
M  END
$$$$
