@<TRIPOS>MOLECULE
DMS_1_A_401
 10 9 0 0 0
SMALL
NO_CHARGES

@<TRIPOS>ATOM
      1 S           7.0410  -28.3420   21.3440 S.o    401  DMS401      0.0000
      2 O           7.9800  -27.4770   22.1150 O.2    401  DMS401      0.0000
      3 C1          5.7430  -29.0020   22.4330 C.3    401  DMS401      0.0000
      4 C2          6.0710  -27.3960   20.1370 C.3    401  DMS401      0.0000
      5 H           5.0540  -29.6400   21.8427 H      401  DMS401      0.0000
      6 H           5.1767  -28.1647   22.8898 H      401  DMS401      0.0000
      7 H           6.2116  -29.6106   23.2332 H      401  DMS401      0.0000
      8 H           5.3809  -28.0785   19.6002 H      401  DMS401      0.0000
      9 H           6.7582  -26.9210   19.4074 H      401  DMS401      0.0000
     10 H           5.4874  -26.6105   20.6593 H      401  DMS401      0.0000
@<TRIPOS>BOND
     1     1     2    2
     2     1     3    1
     3     1     4    1
     4     3     5    1
     5     3     6    1
     6     3     7    1
     7     4     8    1
     8     4     9    1
     9     4    10    1

