@<TRIPOS>MOLECULE
DMS_2_A_402
 10 9 0 0 0
SMALL
NO_CHARGES

@<TRIPOS>ATOM
      1 S          -5.9970    0.3920  -18.2020 S.o    402  DMS402      0.0000
      2 O          -7.0260    0.9550  -17.3090 O.2    402  DMS402      0.0000
      3 C1         -6.7410    0.0800  -19.8210 C.3    402  DMS402      0.0000
      4 C2         -4.8720    1.7190  -18.7110 C.3    402  DMS402      0.0000
      5 H          -5.9592   -0.2546  -20.5328 H      402  DMS402      0.0000
      6 H          -7.2228    1.0036  -20.2028 H      402  DMS402      0.0000
      7 H          -7.5065   -0.7168  -19.7227 H      402  DMS402      0.0000
      8 H          -4.1508    1.3303  -19.4585 H      402  DMS402      0.0000
      9 H          -4.3142    2.0834  -17.8241 H      402  DMS402      0.0000
     10 H          -5.4489    2.5589  -19.1499 H      402  DMS402      0.0000
@<TRIPOS>BOND
     1     1     2    2
     2     1     3    1
     3     1     4    1
     4     3     5    1
     5     3     6    1
     6     3     7    1
     7     4     8    1
     8     4     9    1
     9     4    10    1

