@<TRIPOS>MOLECULE
4MB_1_A_201
 22 22 0 0 0
SMALL
NO_CHARGES

@<TRIPOS>ATOM
      1 C3        -47.4700  -29.4350    5.7370 C.ar   201  4MB201      0.0000
      2 C5        -46.8860  -29.4280    3.4640 C.ar   201  4MB201      0.0000
      3 N1        -49.6730  -28.5960    6.4490 N.am   201  4MB201      0.0000
      4 C2        -48.6940  -28.8830    5.4140 C.ar   201  4MB201      0.0000
      5 C4        -46.5740  -29.6790    4.7570 C.ar   201  4MB201      0.0000
      6 C6        -45.8870  -29.8080    2.3700 C.2    201  4MB201      0.0000
      7 C9        -48.1090  -28.9160    3.1230 C.ar   201  4MB201      0.0000
      8 C12       -50.6820  -31.2580    6.7500 C.3    201  4MB201      0.0000
      9 C10       -49.0190  -28.5980    4.1030 C.ar   201  4MB201      0.0000
     10 O7        -46.2170  -29.6820    1.1800 O.co2  201  4MB201     -0.5000
     11 O8        -44.8070  -30.3360    2.6210 O.co2  201  4MB201     -0.5000
     12 S11       -51.0790  -29.5060    6.4380 S.o    201  4MB201      0.0000
     13 O14       -51.8930  -29.0490    7.5350 O.2    201  4MB201      0.0000
     14 O13       -51.6660  -29.3620    5.1720 O.2    201  4MB201      0.0000
     15 H         -47.2254  -29.6642    6.7875 H      201  4MB201      0.0000
     16 H         -49.4258  -27.8721    7.1324 H      201  4MB201      0.0000
     17 H         -45.5913  -30.1030    5.0244 H      201  4MB201      0.0000
     18 H         -48.3744  -28.7377    2.0677 H      201  4MB201      0.0000
     19 H         -51.5943  -31.8741    6.7667 H      201  4MB201      0.0000
     20 H         -50.1726  -31.3819    7.7181 H      201  4MB201      0.0000
     21 H         -50.0193  -31.6594    5.9678 H      201  4MB201      0.0000
     22 H         -49.9858  -28.1433    3.8359 H      201  4MB201      0.0000
@<TRIPOS>BOND
     1     1     4   ar
     2     1     5   ar
     3     1    15    1
     4     2     5   ar
     5     2     6    1
     6     2     7   ar
     7     3     4    1
     8     3    12    1
     9     3    16    1
    10     4     9   ar
    11     5    17    1
    12     6    10   ar
    13     6    11   ar
    14     7     9   ar
    15     7    18    1
    16     8    12    1
    17     8    19    1
    18     8    20    1
    19     8    21    1
    20     9    22    1
    21    12    13    2
    22    12    14    2

