@<TRIPOS>MOLECULE
DMS_1_A_403
 10 9 0 0 0
SMALL
NO_CHARGES

@<TRIPOS>ATOM
      1 S         -21.8010   -9.8130    9.1860 S.o    403  DMS403      0.0000
      2 O         -21.0810  -10.9850    8.6640 O.2    403  DMS403      0.0000
      3 C1        -20.5670   -8.6250    9.5970 C.3    403  DMS403      0.0000
      4 C2        -22.3730  -10.2560   10.7990 C.3    403  DMS403      0.0000
      5 H         -21.0338   -7.7623   10.1149 H      403  DMS403      0.0000
      6 H         -20.0769   -8.2641    8.6697 H      403  DMS403      0.0000
      7 H         -19.8004   -9.0789   10.2581 H      403  DMS403      0.0000
      8 H         -22.8138   -9.3686   11.2976 H      403  DMS403      0.0000
      9 H         -21.5331  -10.6427   11.4119 H      403  DMS403      0.0000
     10 H         -23.1503  -11.0426   10.7126 H      403  DMS403      0.0000
@<TRIPOS>BOND
     1     1     2    2
     2     1     3    1
     3     1     4    1
     4     3     5    1
     5     3     6    1
     6     3     7    1
     7     4     8    1
     8     4     9    1
     9     4    10    1

