SV6_1_A_401
  -ISIS-            3D

104108  0  0  0  0  0  0  0  0  1 V2000
  -18.0700  -11.3360  -35.0410 C   0  0  0  0  0
  -18.7490  -12.7020  -36.8590 C   0  0  0  0  0
  -18.0150  -13.7570  -36.3290 C   0  0  0  0  0
  -18.1140   -9.9940  -34.3270 C   0  0  0  0  0
  -17.3480  -12.4090  -34.5120 C   0  0  0  0  0
  -17.5260   -9.8790  -33.2370 O   0  0  0  0  0
  -18.7710  -11.5220  -36.2020 N   0  0  0  0  0
  -17.3320  -13.5790  -35.1760 N   0  0  0  0  0
  -18.7460   -9.0030  -34.8650 N   0  0  0  0  0
  -18.8140   -7.7350  -34.1350 C   0  0  0  0  0
  -19.8720   -7.8910  -33.0860 C   0  0  0  0  0
  -20.9090   -8.4650  -33.3850 O   0  0  0  0  0
  -19.1380   -6.6310  -35.1420 C   0  0  0  0  0
  -17.9270   -6.4410  -36.0350 C   0  0  0  0  0
  -18.0490   -5.2490  -36.9850 C   0  0  0  0  0
  -18.4790   -3.9700  -36.2130 C   0  0  0  0  0
  -19.7500   -4.2210  -35.4100 C   0  0  0  0  0
  -19.5260   -5.3400  -34.4060 C   0  0  0  0  0
  -19.5930   -7.4700  -31.9020 N   0  0  0  0  0
  -20.5720   -7.5460  -30.8250 C   0  0  0  0  0
  -20.2830   -8.6930  -29.8380 C   0  0  0  0  0
  -18.8980   -8.5630  -29.1730 C   0  0  0  0  0
  -20.2490   -9.9930  -30.6580 C   0  0  0  0  0
  -21.4400   -8.7580  -28.8110 C   0  0  0  0  0
  -20.7100   -6.1640  -30.1880 C   0  0  0  0  0
  -19.6890   -5.6590  -29.6650 O   0  0  0  0  0
  -22.3820   -4.6610  -28.0530 C   0  0  0  0  0
  -21.9240   -5.5960  -30.2360 N   0  0  0  0  0
  -23.2020   -5.5350  -27.7520 O   0  0  0  0  0
  -22.2760   -4.3530  -29.4970 C   0  0  0  0  0
  -23.5600   -3.8140  -30.0880 C   0  0  0  0  0
  -23.8420   -4.7620  -31.2510 C   0  0  0  0  0
  -23.4430   -2.4440  -30.7090 C   0  0  0  0  0
  -23.0840   -2.6700  -32.1970 C   0  0  0  0  0
  -23.1040   -6.0590  -30.9520 C   0  0  0  0  0
  -23.2960   -4.1380  -32.5300 C   0  0  0  0  0
  -23.7330   -3.9730  -23.2090 N   0  0  0  0  0
  -21.6040   -4.0260  -27.2630 N   0  0  0  0  0
  -21.6720   -4.3390  -25.7850 C   0  0  0  0  0
  -22.1820   -3.1930  -24.9320 C   0  0  0  0  0
  -20.2530   -4.7480  -25.4190 C   0  0  0  0  0
  -20.1490   -6.2150  -25.8440 C   0  0  0  0  0
  -18.7550   -6.7800  -25.6500 C   0  0  0  0  0
  -22.5100   -3.6300  -23.5060 C   0  0  0  0  0
  -24.2180   -4.3870  -21.8940 C   0  0  0  0  0
  -25.4880   -5.2380  -21.8640 C   0  0  0  0  0
  -24.1380   -5.9030  -21.6870 C   0  0  0  0  0
  -23.3810   -2.6090  -25.4840 O   0  0  0  0  0
  -21.6010   -3.5740  -22.7060 O   0  0  0  0  0
  -19.3182  -12.8096  -37.7961 H   0  0  0  0  0
  -17.9737  -14.7369  -36.8310 H   0  0  0  0  0
  -16.7819  -12.3198  -33.5719 H   0  0  0  0  0
  -19.2196   -9.1462  -35.7667 H   0  0  0  0  0
  -17.8354   -7.5013  -33.6524 H   0  0  0  0  0
  -20.0088   -6.9436  -35.7685 H   0  0  0  0  0
  -17.7346   -7.3606  -36.6343 H   0  0  0  0  0
  -17.0204   -6.2864  -35.4043 H   0  0  0  0  0
  -18.8049   -5.4756  -37.7724 H   0  0  0  0  0
  -17.0818   -5.0714  -37.5093 H   0  0  0  0  0
  -18.6446   -3.1374  -36.9353 H   0  0  0  0  0
  -17.6562   -3.6456  -35.5349 H   0  0  0  0  0
  -20.5933   -4.4757  -36.0924 H   0  0  0  0  0
  -20.0452   -3.2892  -34.8737 H   0  0  0  0  0
  -18.7294   -5.0489  -33.6833 H   0  0  0  0  0
  -20.4586   -5.4934  -33.8179 H   0  0  0  0  0
  -18.6803   -7.0470  -31.6850 H   0  0  0  0  0
  -21.5586   -7.8069  -31.2606 H   0  0  0  0  0
  -18.6868   -9.4270  -28.5041 H   0  0  0  0  0
  -18.8216   -7.6532  -28.5416 H   0  0  0  0  0
  -18.0697   -8.5197  -29.9139 H   0  0  0  0  0
  -20.1168  -10.8809  -29.9999 H   0  0  0  0  0
  -19.4140  -10.0229  -31.3900 H   0  0  0  0  0
  -21.1931  -10.1619  -31.2221 H   0  0  0  0  0
  -21.2993   -9.5981  -28.0950 H   0  0  0  0  0
  -22.4276   -8.9107  -29.3001 H   0  0  0  0  0
  -21.5126   -7.8303  -28.2050 H   0  0  0  0  0
  -21.4679   -3.6014  -29.6598 H   0  0  0  0  0
  -24.3863   -3.8444  -29.3400 H   0  0  0  0  0
  -24.9386   -4.9385  -31.3589 H   0  0  0  0  0
  -22.7057   -1.7930  -30.1896 H   0  0  0  0  0
  -24.4291   -1.9271  -30.6495 H   0  0  0  0  0
  -22.0201   -2.3895  -32.3756 H   0  0  0  0  0
  -23.7052   -2.0171  -32.8517 H   0  0  0  0  0
  -23.7346   -6.7146  -30.3086 H   0  0  0  0  0
  -22.9026   -6.6027  -31.8996 H   0  0  0  0  0
  -24.0069   -4.2679  -33.3771 H   0  0  0  0  0
  -22.3288   -4.5951  -32.8358 H   0  0  0  0  0
  -24.3856   -3.9252  -24.0083 H   0  0  0  0  0
  -20.9396   -3.3210  -27.6099 H   0  0  0  0  0
  -22.3598   -5.1952  -25.5921 H   0  0  0  0  0
  -21.3913   -2.4082  -24.8981 H   0  0  0  0  0
  -20.0759   -4.6766  -24.3233 H   0  0  0  0  0
  -19.4905   -4.1113  -25.9210 H   0  0  0  0  0
  -20.4183   -6.3224  -26.9183 H   0  0  0  0  0
  -20.8707   -6.8371  -25.2645 H   0  0  0  0  0
  -18.7046   -7.8526  -25.9434 H   0  0  0  0  0
  -18.4304   -6.7168  -24.5872 H   0  0  0  0  0
  -18.0007   -6.2352  -26.2609 H   0  0  0  0  0
  -24.0322   -3.7630  -21.0221 H   0  0  0  0  0
  -25.9748   -5.4051  -22.8208 H   0  0  0  0  0
  -26.0914   -5.1473  -20.9649 H   0  0  0  0  0
  -23.8978   -6.2249  -20.6774 H   0  0  0  0  0
  -23.7836   -6.4836  -22.5345 H   0  0  0  0  0
  -23.5032   -1.7486  -25.1033 H   0  0  0  0  0
  1  4  1  0  0  0
  1  5  1  0  0  0
  1  7  1  0  0  0
  2  3  2  0  0  0
  2  7  1  0  0  0
  2 50  1  0  0  0
  3  8  1  0  0  0
  3 51  1  0  0  0
  4  6  2  0  0  0
  4  9  1  0  0  0
  5  8  2  0  0  0
  5 52  1  0  0  0
  9 10  1  0  0  0
  9 53  1  0  0  0
 10 11  1  0  0  0
 10 13  1  0  0  0
 10 54  1  0  0  0
 11 12  2  0  0  0
 11 19  1  0  0  0
 13 14  1  0  0  0
 13 18  1  0  0  0
 13 55  1  0  0  0
 14 15  1  0  0  0
 14 56  1  0  0  0
 14 57  1  0  0  0
 15 16  1  0  0  0
 15 58  1  0  0  0
 15 59  1  0  0  0
 16 17  1  0  0  0
 16 60  1  0  0  0
 16 61  1  0  0  0
 17 18  1  0  0  0
 17 62  1  0  0  0
 17 63  1  0  0  0
 18 64  1  0  0  0
 18 65  1  0  0  0
 19 20  1  0  0  0
 19 66  1  0  0  0
 20 21  1  0  0  0
 20 25  1  0  0  0
 20 67  1  0  0  0
 21 22  1  0  0  0
 21 23  1  0  0  0
 21 24  1  0  0  0
 22 68  1  0  0  0
 22 69  1  0  0  0
 22 70  1  0  0  0
 23 71  1  0  0  0
 23 72  1  0  0  0
 23 73  1  0  0  0
 24 74  1  0  0  0
 24 75  1  0  0  0
 24 76  1  0  0  0
 25 26  2  0  0  0
 25 28  1  0  0  0
 27 29  2  0  0  0
 27 30  1  0  0  0
 27 38  1  0  0  0
 28 30  1  0  0  0
 28 35  1  0  0  0
 30 31  1  0  0  0
 30 77  1  0  0  0
 31 32  1  0  0  0
 31 33  1  0  0  0
 31 78  1  0  0  0
 32 35  1  0  0  0
 32 36  1  0  0  0
 32 79  1  0  0  0
 33 34  1  0  0  0
 33 80  1  0  0  0
 33 81  1  0  0  0
 34 36  1  0  0  0
 34 82  1  0  0  0
 34 83  1  0  0  0
 35 84  1  0  0  0
 35 85  1  0  0  0
 36 86  1  0  0  0
 36 87  1  0  0  0
 37 44  1  0  0  0
 37 45  1  0  0  0
 37 88  1  0  0  0
 38 39  1  0  0  0
 38 89  1  0  0  0
 39 40  1  0  0  0
 39 41  1  0  0  0
 39 90  1  0  0  0
 40 44  1  0  0  0
 40 48  1  0  0  0
 40 91  1  0  0  0
 41 42  1  0  0  0
 41 92  1  0  0  0
 41 93  1  0  0  0
 42 43  1  0  0  0
 42 94  1  0  0  0
 42 95  1  0  0  0
 43 96  1  0  0  0
 43 97  1  0  0  0
 43 98  1  0  0  0
 44 49  2  0  0  0
 45 46  1  0  0  0
 45 47  1  0  0  0
 45 99  1  0  0  0
 46 47  1  0  0  0
 46100  1  0  0  0
 46101  1  0  0  0
 47102  1  0  0  0
 47103  1  0  0  0
 48104  1  0  0  0
M  END
$$$$
