@<TRIPOS>MOLECULE
SV6_1_B_401
 54 56 0 0 0
SMALL
NO_CHARGES

@<TRIPOS>ATOM
      1 CAV        17.9660   12.4780   -2.8780 C.2    401  SV6401      0.0000
      2 OBT        17.2100   12.3250   -3.8240 O.2    401  SV6401      0.0000
      3 C          15.1900   13.4170   -1.9410 C.2    401  SV6401      0.0000
      4 N          17.4890   12.5400   -1.7000 N.am   401  SV6401      0.0000
      5 O          15.3510   14.5840   -1.5590 O.2    401  SV6401      0.0000
      6 CA         16.0710   12.3150   -1.3570 C.3    401  SV6401      0.0000
      7 CB         16.1160   12.2300    0.1810 C.3    401  SV6401      0.0000
      8 CG         17.4710   12.7040    0.6760 C.3    401  SV6401      0.0000
      9 CBE        15.9580   10.8050    0.7040 C.3    401  SV6401      0.0000
     10 CBF        17.3370   10.3180    1.1260 C.3    401  SV6401      0.0000
     11 CD1        18.3230   12.9460   -0.5610 C.3    401  SV6401      0.0000
     12 CD2        18.0530   11.5940    1.5450 C.3    401  SV6401      0.0000
     13 NAA        11.1300   16.3510   -3.4050 N.am   401  SV6401      0.0000
     14 NAE        14.3370   13.0940   -2.8440 N.am   401  SV6401      0.0000
     15 CAH        13.4660   14.0630   -3.5600 C.3    401  SV6401      0.0000
     16 CAI        12.0860   14.1540   -2.8680 C.3    401  SV6401      0.0000
     17 CAJ        13.4540   13.6140   -5.0620 C.3    401  SV6401      0.0000
     18 CAK        13.4540   12.0840   -5.3030 C.3    401  SV6401      0.0000
     19 CAL        13.1510   11.6750   -6.7600 C.3    401  SV6401      0.0000
     20 CAM        11.1710   15.1100   -3.6180 C.2    401  SV6401      0.0000
     21 CAN        11.9170   17.1620   -2.5020 C.3    401  SV6401      0.0000
     22 CAO        11.5020   18.6140   -2.7590 C.3    401  SV6401      0.0000
     23 CAP        12.8570   18.1070   -3.2390 C.3    401  SV6401      0.0000
     24 OBR        12.2530   14.5880   -1.4880 O.3    401  SV6401      0.0000
     25 OBS        10.4200   14.7010   -4.4560 O.2    401  SV6401      0.0000
     26 H          19.0653   12.6071   -3.0226 H      401  SV6401      0.0000
     27 H          15.7365   11.3328   -1.7643 H      401  SV6401      0.0000
     28 H          15.3022   12.8641    0.6076 H      401  SV6401      0.0000
     29 H          17.3773   13.6486    1.2629 H      401  SV6401      0.0000
     30 H          15.4827   10.1145   -0.0265 H      401  SV6401      0.0000
     31 H          15.2935   10.8201    1.6000 H      401  SV6401      0.0000
     32 H          17.8598    9.8570    0.2562 H      401  SV6401      0.0000
     33 H          17.2943    9.5629    1.9422 H      401  SV6401      0.0000
     34 H          18.5857   14.0271   -0.6284 H      401  SV6401      0.0000
     35 H          19.2811   12.3814   -0.5268 H      401  SV6401      0.0000
     36 H          17.8164   11.8070    2.6140 H      401  SV6401      0.0000
     37 H          19.1589   11.5031    1.4744 H      401  SV6401      0.0000
     38 H          10.4178   16.8194   -3.9847 H      401  SV6401      0.0000
     39 H          14.2576   12.0966   -3.0728 H      401  SV6401      0.0000
     40 H          13.9181   15.0833   -3.5323 H      401  SV6401      0.0000
     41 H          11.6227   13.1413   -2.8730 H      401  SV6401      0.0000
     42 H          14.3614   14.0333   -5.5577 H      401  SV6401      0.0000
     43 H          12.5888   14.0767   -5.5849 H      401  SV6401      0.0000
     44 H          12.6912   11.6053   -4.6455 H      401  SV6401      0.0000
     45 H          14.4465   11.6536   -5.0350 H      401  SV6401      0.0000
     46 H          13.1674   10.5687   -6.8833 H      401  SV6401      0.0000
     47 H          13.8995   12.0994   -7.4660 H      401  SV6401      0.0000
     48 H          12.1468   12.0298   -7.0832 H      401  SV6401      0.0000
     49 H          12.1266   16.9066   -1.4688 H      401  SV6401      0.0000
     50 H          11.5280   19.2684   -1.8918 H      401  SV6401      0.0000
     51 H          10.7805   18.8210   -3.5438 H      401  SV6401      0.0000
     52 H          12.9530   17.9475   -4.3095 H      401  SV6401      0.0000
     53 H          13.7175   18.4471   -2.6696 H      401  SV6401      0.0000
     54 H          11.3994   14.6245   -1.0759 H      401  SV6401      0.0000
@<TRIPOS>BOND
     1     1     2    2
     2     1     4    1
     3     1    26    1
     4     3     5    2
     5     3     6    1
     6     3    14    1
     7     4     6    1
     8     4    11    1
     9     6     7    1
    10     6    27    1
    11     7     8    1
    12     7     9    1
    13     7    28    1
    14     8    11    1
    15     8    12    1
    16     8    29    1
    17     9    10    1
    18     9    30    1
    19     9    31    1
    20    10    12    1
    21    10    32    1
    22    10    33    1
    23    11    34    1
    24    11    35    1
    25    12    36    1
    26    12    37    1
    27    13    20    1
    28    13    21    1
    29    13    38    1
    30    14    15    1
    31    14    39    1
    32    15    16    1
    33    15    17    1
    34    15    40    1
    35    16    20    1
    36    16    24    1
    37    16    41    1
    38    17    18    1
    39    17    42    1
    40    17    43    1
    41    18    19    1
    42    18    44    1
    43    18    45    1
    44    19    46    1
    45    19    47    1
    46    19    48    1
    47    20    25    2
    48    21    22    1
    49    21    23    1
    50    21    49    1
    51    22    23    1
    52    22    50    1
    53    22    51    1
    54    23    52    1
    55    23    53    1
    56    24    54    1

