@<TRIPOS>MOLECULE
MYC_1_A_401
 33 35 0 0 0
SMALL
NO_CHARGES

@<TRIPOS>ATOM
      1 C1        -14.2650   14.0960   72.3130 C.ar   401  MYC401      0.0000
      2 C2        -14.8950   15.1330   71.6670 C.ar   401  MYC401      0.0000
      3 C3        -14.1830   15.9610   70.7670 C.ar   401  MYC401      0.0000
      4 C4        -12.8320   15.6770   70.5650 C.ar   401  MYC401      0.0000
      5 C5        -12.1700   14.6410   71.1970 C.ar   401  MYC401      0.0000
      6 C6        -12.9040   13.8540   72.0740 C.ar   401  MYC401      0.0000
      7 C9        -14.7910   17.0780   70.0550 C.2    401  MYC401      0.0000
      8 C10       -13.9290   17.8170   69.1740 C.2    401  MYC401      0.0000
      9 C11       -12.6150   17.4790   69.0110 C.2    401  MYC401      0.0000
     10 C14       -11.6620   18.1840   68.1420 C.ar   401  MYC401      0.0000
     11 C15       -10.4230   18.5950   68.6500 C.ar   401  MYC401      0.0000
     12 C16        -9.5230   19.2640   67.8450 C.ar   401  MYC401      0.0000
     13 C17        -9.8460   19.5390   66.5180 C.ar   401  MYC401      0.0000
     14 C18       -11.0780   19.1340   66.0050 C.ar   401  MYC401      0.0000
     15 C19       -11.9850   18.4670   66.8070 C.ar   401  MYC401      0.0000
     16 O12       -12.0770   16.4330   69.7160 O.3    401  MYC401      0.0000
     17 O13       -16.0010   17.3990   70.1820 O.2    401  MYC401      0.0000
     18 O23       -11.3480   19.4240   64.6960 O.3    401  MYC401      0.0000
     19 O24        -8.9540   20.2000   65.7250 O.3    401  MYC401      0.0000
     20 O25        -8.3040   19.6760   68.3110 O.3    401  MYC401      0.0000
     21 O27       -14.4780   18.8600   68.5040 O.3    401  MYC401      0.0000
     22 O29       -12.2970   12.8300   72.7170 O.3    401  MYC401      0.0000
     23 O30       -16.2060   15.3650   71.8970 O.3    401  MYC401      0.0000
     24 H         -14.8080   13.4455   73.0187 H      401  MYC401      0.0000
     25 H         -11.0999   14.4575   71.0048 H      401  MYC401      0.0000
     26 H         -10.1715   18.3806   69.7025 H      401  MYC401      0.0000
     27 H         -12.9610   18.1496   66.4037 H      401  MYC401      0.0000
     28 H         -12.2081   19.1311   64.4316 H      401  MYC401      0.0000
     29 H          -9.3489   20.2966   64.8661 H      401  MYC401      0.0000
     30 H          -8.1626   19.4638   69.2232 H      401  MYC401      0.0000
     31 H         -15.3853   18.9671   68.7646 H      401  MYC401      0.0000
     32 H         -11.3809   12.7265   72.5033 H      401  MYC401      0.0000
     33 H         -16.6113   14.7701   72.5115 H      401  MYC401      0.0000
@<TRIPOS>BOND
     1     1     2   ar
     2     1     6   ar
     3     1    24    1
     4     2     3   ar
     5     2    23    1
     6     3     4   ar
     7     3     7    1
     8     4     5   ar
     9     4    16    1
    10     5     6   ar
    11     5    25    1
    12     6    22    1
    13     7     8    1
    14     7    17    2
    15     8     9    2
    16     8    21    1
    17     9    10    1
    18     9    16    1
    19    10    11   ar
    20    10    15   ar
    21    11    12   ar
    22    11    26    1
    23    12    13   ar
    24    12    20    1
    25    13    14   ar
    26    13    19    1
    27    14    15   ar
    28    14    18    1
    29    15    27    1
    30    18    28    1
    31    19    29    1
    32    20    30    1
    33    21    31    1
    34    22    32    1
    35    23    33    1

