MYC_2_A_401
  -ISIS-            3D

 33 35  0  0  0  0  0  0  0  0  1 V2000
  -29.8320   14.0960   21.1860 C   0  0  0  0  0
  -29.2020   15.1330   21.8320 C   0  0  0  0  0
  -29.9140   15.9610   22.7320 C   0  0  0  0  0
  -31.2650   15.6770   22.9340 C   0  0  0  0  0
  -31.9270   14.6410   22.3020 C   0  0  0  0  0
  -31.1930   13.8540   21.4250 C   0  0  0  0  0
  -29.3060   17.0780   23.4440 C   0  0  0  0  0
  -30.1680   17.8170   24.3250 C   0  0  0  0  0
  -31.4820   17.4790   24.4880 C   0  0  0  0  0
  -32.4350   18.1840   25.3570 C   0  0  0  0  0
  -33.6740   18.5950   24.8490 C   0  0  0  0  0
  -34.5740   19.2640   25.6540 C   0  0  0  0  0
  -34.2510   19.5390   26.9810 C   0  0  0  0  0
  -33.0190   19.1340   27.4940 C   0  0  0  0  0
  -32.1120   18.4670   26.6920 C   0  0  0  0  0
  -32.0200   16.4330   23.7830 O   0  0  0  0  0
  -28.0960   17.3990   23.3170 O   0  0  0  0  0
  -32.7490   19.4240   28.8030 O   0  0  0  0  0
  -35.1430   20.2000   27.7740 O   0  0  0  0  0
  -35.7930   19.6760   25.1880 O   0  0  0  0  0
  -29.6190   18.8600   24.9950 O   0  0  0  0  0
  -31.8000   12.8300   20.7820 O   0  0  0  0  0
  -27.8910   15.3650   21.6020 O   0  0  0  0  0
  -29.2719   13.4560   20.4833 H   0  0  0  0  0
  -32.9960   14.4425   22.4812 H   0  0  0  0  0
  -33.9408   18.3879   23.7994 H   0  0  0  0  0
  -31.1359   18.1493   27.0947 H   0  0  0  0  0
  -31.8894   19.1284   29.0658 H   0  0  0  0  0
  -34.7446   20.2917   28.6309 H   0  0  0  0  0
  -36.2427   20.1137   25.9011 H   0  0  0  0  0
  -28.7128   18.9686   24.7310 H   0  0  0  0  0
  -31.2366   12.3404   20.2002 H   0  0  0  0  0
  -27.4776   14.7768   20.9864 H   0  0  0  0  0
  1  2  2  0  0  0
  1  6  1  0  0  0
  1 24  1  0  0  0
  2  3  1  0  0  0
  2 23  1  0  0  0
  3  4  2  0  0  0
  3  7  1  0  0  0
  4  5  1  0  0  0
  4 16  1  0  0  0
  5  6  2  0  0  0
  5 25  1  0  0  0
  6 22  1  0  0  0
  7  8  1  0  0  0
  7 17  2  0  0  0
  8  9  2  0  0  0
  8 21  1  0  0  0
  9 10  1  0  0  0
  9 16  1  0  0  0
 10 11  2  0  0  0
 10 15  1  0  0  0
 11 12  1  0  0  0
 11 26  1  0  0  0
 12 13  2  0  0  0
 12 20  1  0  0  0
 13 14  1  0  0  0
 13 19  1  0  0  0
 14 15  2  0  0  0
 14 18  1  0  0  0
 15 27  1  0  0  0
 18 28  1  0  0  0
 19 29  1  0  0  0
 20 30  1  0  0  0
 21 31  1  0  0  0
 22 32  1  0  0  0
 23 33  1  0  0  0
M  END
$$$$
