@<TRIPOS>MOLECULE
MYC_2_A_401
 33 35 0 0 0
SMALL
NO_CHARGES

@<TRIPOS>ATOM
      1 C1        -29.8320   14.0960   21.1860 C.ar   401  MYC401      0.0000
      2 C2        -29.2020   15.1330   21.8320 C.ar   401  MYC401      0.0000
      3 C3        -29.9140   15.9610   22.7320 C.ar   401  MYC401      0.0000
      4 C4        -31.2650   15.6770   22.9340 C.ar   401  MYC401      0.0000
      5 C5        -31.9270   14.6410   22.3020 C.ar   401  MYC401      0.0000
      6 C6        -31.1930   13.8540   21.4250 C.ar   401  MYC401      0.0000
      7 C9        -29.3060   17.0780   23.4440 C.2    401  MYC401      0.0000
      8 C10       -30.1680   17.8170   24.3250 C.2    401  MYC401      0.0000
      9 C11       -31.4820   17.4790   24.4880 C.2    401  MYC401      0.0000
     10 C14       -32.4350   18.1840   25.3570 C.ar   401  MYC401      0.0000
     11 C15       -33.6740   18.5950   24.8490 C.ar   401  MYC401      0.0000
     12 C16       -34.5740   19.2640   25.6540 C.ar   401  MYC401      0.0000
     13 C17       -34.2510   19.5390   26.9810 C.ar   401  MYC401      0.0000
     14 C18       -33.0190   19.1340   27.4940 C.ar   401  MYC401      0.0000
     15 C19       -32.1120   18.4670   26.6920 C.ar   401  MYC401      0.0000
     16 O12       -32.0200   16.4330   23.7830 O.3    401  MYC401      0.0000
     17 O13       -28.0960   17.3990   23.3170 O.2    401  MYC401      0.0000
     18 O23       -32.7490   19.4240   28.8030 O.3    401  MYC401      0.0000
     19 O24       -35.1430   20.2000   27.7740 O.3    401  MYC401      0.0000
     20 O25       -35.7930   19.6760   25.1880 O.3    401  MYC401      0.0000
     21 O27       -29.6190   18.8600   24.9950 O.3    401  MYC401      0.0000
     22 O29       -31.8000   12.8300   20.7820 O.3    401  MYC401      0.0000
     23 O30       -27.8910   15.3650   21.6020 O.3    401  MYC401      0.0000
     24 H         -29.2719   13.4560   20.4833 H      401  MYC401      0.0000
     25 H         -32.9960   14.4425   22.4812 H      401  MYC401      0.0000
     26 H         -33.9408   18.3879   23.7994 H      401  MYC401      0.0000
     27 H         -31.1359   18.1493   27.0947 H      401  MYC401      0.0000
     28 H         -31.8894   19.1284   29.0658 H      401  MYC401      0.0000
     29 H         -34.7446   20.2917   28.6309 H      401  MYC401      0.0000
     30 H         -36.2427   20.1137   25.9011 H      401  MYC401      0.0000
     31 H         -28.7128   18.9686   24.7310 H      401  MYC401      0.0000
     32 H         -31.2366   12.3404   20.2002 H      401  MYC401      0.0000
     33 H         -27.4776   14.7768   20.9864 H      401  MYC401      0.0000
@<TRIPOS>BOND
     1     1     2   ar
     2     1     6   ar
     3     1    24    1
     4     2     3   ar
     5     2    23    1
     6     3     4   ar
     7     3     7    1
     8     4     5   ar
     9     4    16    1
    10     5     6   ar
    11     5    25    1
    12     6    22    1
    13     7     8    1
    14     7    17    2
    15     8     9    2
    16     8    21    1
    17     9    10    1
    18     9    16    1
    19    10    11   ar
    20    10    15   ar
    21    11    12   ar
    22    11    26    1
    23    12    13   ar
    24    12    20    1
    25    13    14   ar
    26    13    19    1
    27    14    15   ar
    28    14    18    1
    29    15    27    1
    30    18    28    1
    31    19    29    1
    32    20    30    1
    33    21    31    1
    34    22    32    1
    35    23    33    1

