@<TRIPOS>MOLECULE
EDO_2_A_601
 10 9 0 0 0
SMALL
NO_CHARGES

@<TRIPOS>ATOM
      1 C1          0.2160  -35.0260  -18.9170 C.3    601  EDO601      0.0000
      2 O1         -1.1620  -34.6360  -19.1140 O.3    601  EDO601      0.0000
      3 C2          1.1130  -33.8090  -18.6310 C.3    601  EDO601      0.0000
      4 O2          0.4370  -32.8840  -17.7390 O.3    601  EDO601      0.0000
      5 H           0.5733  -35.5746  -19.8124 H      601  EDO601      0.0000
      6 H           0.2615  -35.7345  -18.0631 H      601  EDO601      0.0000
      7 H          -1.3224  -33.9241  -18.5043 H      601  EDO601      0.0000
      8 H           1.3462  -33.2849  -19.5822 H      601  EDO601      0.0000
      9 H           2.0759  -34.1325  -18.1833 H      601  EDO601      0.0000
     10 H           1.0133  -32.1463  -17.5911 H      601  EDO601      0.0000
@<TRIPOS>BOND
     1     1     2    1
     2     1     3    1
     3     1     5    1
     4     1     6    1
     5     2     7    1
     6     3     4    1
     7     3     8    1
     8     3     9    1
     9     4    10    1

