@<TRIPOS>MOLECULE
EDO_1_A_602
 10 9 0 0 0
SMALL
NO_CHARGES

@<TRIPOS>ATOM
      1 C1        -14.2410  -44.2960   -8.6350 C.3    602  EDO602      0.0000
      2 O1        -13.4460  -43.3020   -7.9750 O.3    602  EDO602      0.0000
      3 C2        -15.4440  -44.5730   -7.7440 C.3    602  EDO602      0.0000
      4 O2        -16.2570  -45.6180   -8.3160 O.3    602  EDO602      0.0000
      5 H         -13.6446  -45.2162   -8.8091 H      602  EDO602      0.0000
      6 H         -14.5638  -43.9087   -9.6231 H      602  EDO602      0.0000
      7 H         -12.8067  -43.7418   -7.4301 H      602  EDO602      0.0000
      8 H         -16.0548  -43.6529   -7.6251 H      602  EDO602      0.0000
      9 H         -15.1113  -44.8872   -6.7319 H      602  EDO602      0.0000
     10 H         -17.0244  -45.7272   -7.7701 H      602  EDO602      0.0000
@<TRIPOS>BOND
     1     1     2    1
     2     1     3    1
     3     1     5    1
     4     1     6    1
     5     2     7    1
     6     3     4    1
     7     3     8    1
     8     3     9    1
     9     4    10    1

