EDO_1_A_602
  -ISIS-            3D

 10  9  0  0  0  0  0  0  0  0  1 V2000
  -14.2410  -44.2960   -8.6350 C   0  0  0  0  0
  -13.4460  -43.3020   -7.9750 O   0  0  0  0  0
  -15.4440  -44.5730   -7.7440 C   0  0  0  0  0
  -16.2570  -45.6180   -8.3160 O   0  0  0  0  0
  -13.6446  -45.2162   -8.8091 H   0  0  0  0  0
  -14.5638  -43.9087   -9.6231 H   0  0  0  0  0
  -12.8067  -43.7418   -7.4301 H   0  0  0  0  0
  -16.0548  -43.6529   -7.6251 H   0  0  0  0  0
  -15.1113  -44.8872   -6.7319 H   0  0  0  0  0
  -17.0244  -45.7272   -7.7701 H   0  0  0  0  0
  1  2  1  0  0  0
  1  3  1  0  0  0
  1  5  1  0  0  0
  1  6  1  0  0  0
  2  7  1  0  0  0
  3  4  1  0  0  0
  3  8  1  0  0  0
  3  9  1  0  0  0
  4 10  1  0  0  0
M  END
$$$$
