DMS_1_B_501
  -ISIS-            3D

 10  9  0  0  0  0  0  0  0  0  1 V2000
    4.0830   -1.7750   18.1150 S   0  0  0  0  0
    2.6060   -1.5710   18.4470 O   0  0  0  0  0
    4.1410   -2.6800   16.5980 C   0  0  0  0  0
    4.7180   -0.2270   17.5330 C   0  0  0  0  0
    5.1898   -2.7579   16.2456 H   0  0  0  0  0
    3.5278   -2.1750   15.8237 H   0  0  0  0  0
    3.7426   -3.7018   16.7643 H   0  0  0  0  0
    5.7552   -0.3606   17.1632 H   0  0  0  0  0
    4.7263    0.5032   18.3679 H   0  0  0  0  0
    4.0815    0.1673   16.7145 H   0  0  0  0  0
  1  2  2  0  0  0
  1  3  1  0  0  0
  1  4  1  0  0  0
  3  5  1  0  0  0
  3  6  1  0  0  0
  3  7  1  0  0  0
  4  8  1  0  0  0
  4  9  1  0  0  0
  4 10  1  0  0  0
M  END
$$$$
