@<TRIPOS>MOLECULE
DMS_1_B_501
 10 9 0 0 0
SMALL
NO_CHARGES

@<TRIPOS>ATOM
      1 S           4.0830   -1.7750   18.1150 S.o    501  DMS501      0.0000
      2 O           2.6060   -1.5710   18.4470 O.2    501  DMS501      0.0000
      3 C1          4.1410   -2.6800   16.5980 C.3    501  DMS501      0.0000
      4 C2          4.7180   -0.2270   17.5330 C.3    501  DMS501      0.0000
      5 H           5.1898   -2.7579   16.2456 H      501  DMS501      0.0000
      6 H           3.5278   -2.1750   15.8237 H      501  DMS501      0.0000
      7 H           3.7426   -3.7018   16.7643 H      501  DMS501      0.0000
      8 H           5.7552   -0.3606   17.1632 H      501  DMS501      0.0000
      9 H           4.7263    0.5032   18.3679 H      501  DMS501      0.0000
     10 H           4.0815    0.1673   16.7145 H      501  DMS501      0.0000
@<TRIPOS>BOND
     1     1     2    2
     2     1     3    1
     3     1     4    1
     4     3     5    1
     5     3     6    1
     6     3     7    1
     7     4     8    1
     8     4     9    1
     9     4    10    1

