@<TRIPOS>MOLECULE
APR_1_A_201
 58 61 0 0 0
SMALL
NO_CHARGES

@<TRIPOS>ATOM
      1 N1         33.7840   15.0930   42.3490 N.ar   201  APR201      0.0000
      2 C2         33.2690   16.1360   41.6830 C.ar   201  APR201      0.0000
      3 N3         33.3090   16.4140   40.3820 N.ar   201  APR201      0.0000
      4 C4         33.9970   15.4660   39.7290 C.ar   201  APR201      0.0000
      5 C5         34.6060   14.3570   40.2730 C.ar   201  APR201      0.0000
      6 C6         34.5010   14.1790   41.6630 C.ar   201  APR201      0.0000
      7 N6         35.0170   13.1490   42.3250 N.pl3  201  APR201      0.0000
      8 N7         35.2250   13.6140   39.2760 N.ar   201  APR201      0.0000
      9 C8         34.9790   14.2700   38.1650 C.ar   201  APR201      0.0000
     10 N9         34.2370   15.4110   38.3840 N.ar   201  APR201      0.0000
     11 C1'        33.7640   16.3680   37.4010 C.3    201  APR201      0.0000
     12 C2'        34.5300   16.3520   36.0810 C.3    201  APR201      0.0000
     13 O2'        35.7110   17.1190   36.1380 O.3    201  APR201      0.0000
     14 C3'        33.4860   16.9790   35.1570 C.3    201  APR201      0.0000
     15 O3'        33.6290   18.3740   35.3820 O.3    201  APR201      0.0000
     16 O4'        32.4310   16.0430   37.0750 O.3    201  APR201      0.0000
     17 C4'        32.1840   16.3480   35.6780 C.3    201  APR201      0.0000
     18 C5'        31.7300   15.0740   35.0000 C.3    201  APR201      0.0000
     19 O5'        32.8620   14.1820   34.8060 O.3    201  APR201      0.0000
     20 PA         32.5790   12.6240   34.5480 P.3    201  APR201      0.0000
     21 O1A        32.2710   11.9230   35.8280 O.co2  201  APR201      0.0000
     22 O2A        33.6590   12.0510   33.6900 O.co2  201  APR201      0.0000
     23 O3A        31.2200   12.7170   33.7170 O.3    201  APR201      0.0000
     24 PB         30.8240   12.4860   32.1850 P.3    201  APR201      0.0000
     25 O1B        29.3350   12.5200   32.0870 O.co2  201  APR201      0.0000
     26 O2B        31.6310   13.4080   31.3310 O.co2  201  APR201      0.0000
     27 O5D        31.3520   10.9920   31.9790 O.3    201  APR201      0.0000
     28 C5D        30.4770    9.8510   31.9190 C.3    201  APR201      0.0000
     29 O4D        32.3300    8.7050   32.9090 O.3    201  APR201      0.0000
     30 O1D        32.8180    7.5960   34.8620 O.3    201  APR201      0.0000
     31 C1D        32.3850    7.4540   33.5630 C.3    201  APR201      0.0000
     32 O2D        30.7640    5.5980   33.8150 O.3    201  APR201      0.0000
     33 C2D        30.9390    6.9580   33.4940 C.3    201  APR201      0.0000
     34 O3D        31.2620    6.2740   31.2110 O.3    201  APR201      0.0000
     35 C3D        30.6500    7.2610   32.0300 C.3    201  APR201      0.0000
     36 C4D        31.3470    8.6180   31.8500 C.3    201  APR201      0.0000
     37 H          32.7118   16.8600   42.3024 H      201  APR201      0.0000
     38 H          35.3062   13.9736   37.1614 H      201  APR201      0.0000
     39 H          33.7907   17.3885   37.8410 H      201  APR201      0.0000
     40 H          34.7656   15.3287   35.7356 H      201  APR201      0.0000
     41 H          35.4778   18.0388   36.0991 H      201  APR201      0.0000
     42 H          33.6779   16.7345   34.0919 H      201  APR201      0.0000
     43 H          33.1217   18.8383   34.7300 H      201  APR201      0.0000
     44 H          31.3636   17.0945   35.6143 H      201  APR201      0.0000
     45 H          31.2951   15.3241   34.0091 H      201  APR201      0.0000
     46 H          30.9322   14.5924   35.6033 H      201  APR201      0.0000
     47 H          29.8173    9.9167   31.0290 H      201  APR201      0.0000
     48 H          29.8363    9.8209   32.8251 H      201  APR201      0.0000
     49 H          33.6727    8.0055   34.8534 H      201  APR201      0.0000
     50 H          33.0601    6.7674   33.0122 H      201  APR201      0.0000
     51 H          31.0943    5.4758   34.6961 H      201  APR201      0.0000
     52 H          30.2886    7.5839   34.1417 H      201  APR201      0.0000
     53 H          31.0544    5.4317   31.5999 H      201  APR201      0.0000
     54 H          29.5626    7.3180   31.8201 H      201  APR201      0.0000
     55 H          31.8764    8.6228   30.8722 H      201  APR201      0.0000
     56 H          35.5445   12.4705   41.7602 H      201  APR201      0.0000
     57 H          34.8392   13.1293   43.3369 H      201  APR201      0.0000
     58 H          31.6301   12.5591   36.5079 H      201  APR201      0.0000
@<TRIPOS>BOND
     1     1     2   ar
     2     1     6   ar
     3     2     3   ar
     4     2    37    1
     5     3     4   ar
     6     4     5   ar
     7     4    10   ar
     8     5     6   ar
     9     5     8   ar
    10     6     7    1
    11     7    56    1
    12     7    57    1
    13     8     9   ar
    14     9    10   ar
    15     9    38    1
    16    10    11    1
    17    11    12    1
    18    11    16    1
    19    11    39    1
    20    12    13    1
    21    12    14    1
    22    12    40    1
    23    13    41    1
    24    14    15    1
    25    14    17    1
    26    14    42    1
    27    15    43    1
    28    16    17    1
    29    17    18    1
    30    17    44    1
    31    18    19    1
    32    18    45    1
    33    18    46    1
    34    19    20    1
    35    20    21    1
    36    20    22    2
    37    20    23    1
    38    23    24    1
    39    24    25    2
    40    24    26    2
    41    24    27    1
    42    27    28    1
    43    28    36    1
    44    28    47    1
    45    28    48    1
    46    29    31    1
    47    29    36    1
    48    30    31    1
    49    30    49    1
    50    31    33    1
    51    31    50    1
    52    32    33    1
    53    32    51    1
    54    33    35    1
    55    33    52    1
    56    34    35    1
    57    34    53    1
    58    35    36    1
    59    35    54    1
    60    36    55    1
    61    21    58    1

