ATP_1_A_201
  -ISIS-            3D

 45 47  0  0  0  0  0  0  0  0  1 V2000
    6.0720    9.4830   10.3990 P   0  0  0  0  0
    6.4250    9.8180    8.9660 O   0  0  0  0  0
    7.3600    9.1700   11.1520 O   0  0  0  0  0
    5.3840   10.6680   11.0440 O   0  0  0  0  0
    4.7320    7.1470   11.6520 P   0  0  0  0  0
    5.9570    6.8850   12.4700 O   0  0  0  0  0
    3.7370    7.7970   12.5580 O   0  0  0  0  0
    5.0740    8.1580   10.3620 O   0  0  0  0  0
    4.9900    4.2530   11.6360 P   0  0  0  0  0
    4.3430    3.1100   10.8790 O   0  0  0  0  0
    4.7100    4.0180   13.1060 O   0  0  0  0  0
    4.2620    5.6510   11.1290 O   0  0  0  0  0
    6.6330    4.2480   11.2990 O   0  0  0  0  0
    7.5530    3.4550   12.0650 C   0  0  0  0  0
    8.9160    4.1310   12.2120 C   0  0  0  0  0
    9.6120    3.9960   11.1150 O   0  0  0  0  0
    8.7900    5.7690   12.4810 C   0  0  0  0  0
    9.8250    6.1980   13.4430 O   0  0  0  0  0
    8.8710    6.3370   11.3580 C   0  0  0  0  0
    9.4550    7.7330   11.3680 O   0  0  0  0  0
    9.7700    5.3690   10.4740 C   0  0  0  0  0
    9.3120    5.3910    9.2120 N   0  0  0  0  0
    8.2430    5.9940    8.6860 C   0  0  0  0  0
    8.2310    5.7040    7.3740 N   0  0  0  0  0
    9.3020    4.9240    7.1000 C   0  0  0  0  0
    9.7580    4.3460    5.9270 C   0  0  0  0  0
    9.3200    4.3120    4.5490 N   0  0  0  0  0
   10.8650    3.6080    5.9420 N   0  0  0  0  0
   11.5520    3.4120    7.0920 C   0  0  0  0  0
   11.1080    3.9770    8.2480 N   0  0  0  0  0
    9.9820    4.7280    8.2370 C   0  0  0  0  0
    7.6583    2.4561   11.5931 H   0  0  0  0  0
    7.1414    3.2820   13.0812 H   0  0  0  0  0
    9.4625    3.6637   13.0581 H   0  0  0  0  0
    7.8263    5.9389   12.9956 H   0  0  0  0  0
    9.9884    7.1204   13.2822 H   0  0  0  0  0
    7.8519    6.3876   10.9344 H   0  0  0  0  0
    9.0503    8.2292   10.6682 H   0  0  0  0  0
   10.8345    5.6841   10.5025 H   0  0  0  0  0
    7.4307    6.6278    9.0581 H   0  0  0  0  0
    9.9035    3.7684    3.9013 H   0  0  0  0  0
    8.4610    4.8356    4.3364 H   0  0  0  0  0
   12.4666    2.7991    7.0931 H   0  0  0  0  0
    6.5201    7.8516   12.6548 H   0  0  0  0  0
    4.9946   10.3798   12.0670 H   0  0  0  0  0
  1  2  2  0  0  0
  1  3  2  0  0  0
  1  4  1  0  0  0
  1  8  1  0  0  0
  5  6  1  0  0  0
  5  7  2  0  0  0
  5  8  1  0  0  0
  5 12  1  0  0  0
  9 10  2  0  0  0
  9 11  2  0  0  0
  9 12  1  0  0  0
  9 13  1  0  0  0
 13 14  1  0  0  0
 14 15  1  0  0  0
 14 32  1  0  0  0
 14 33  1  0  0  0
 15 16  1  0  0  0
 15 17  1  0  0  0
 15 34  1  0  0  0
 16 21  1  0  0  0
 17 18  1  0  0  0
 17 19  1  0  0  0
 17 35  1  0  0  0
 18 36  1  0  0  0
 19 20  1  0  0  0
 19 21  1  0  0  0
 19 37  1  0  0  0
 20 38  1  0  0  0
 21 22  1  0  0  0
 21 39  1  0  0  0
 22 23  1  0  0  0
 22 31  1  0  0  0
 23 24  2  0  0  0
 23 40  1  0  0  0
 24 25  1  0  0  0
 25 26  2  0  0  0
 25 31  1  0  0  0
 26 27  1  0  0  0
 26 28  1  0  0  0
 27 41  1  0  0  0
 27 42  1  0  0  0
 28 29  2  0  0  0
 29 30  1  0  0  0
 29 43  1  0  0  0
 30 31  2  0  0  0
  6 44  1  0  0  0
  4 45  1  0  0  0
M  END
$$$$
