EDO_1_A_401
  -ISIS-            3D

 10  9  0  0  0  0  0  0  0  0  1 V2000
   -9.5860    7.7760   46.2850 C   0  0  0  0  0
   -9.4970    8.4160   44.9990 O   0  0  0  0  0
  -10.4310    6.5030   46.2220 C   0  0  0  0  0
  -10.4720    5.8570   47.5110 O   0  0  0  0  0
  -10.0276    8.4844   47.0179 H   0  0  0  0  0
   -8.5614    7.5329   46.6381 H   0  0  0  0  0
   -9.0304    9.2344   45.1066 H   0  0  0  0  0
  -10.0258    5.8010   45.4628 H   0  0  0  0  0
  -11.4686    6.7504   45.9160 H   0  0  0  0  0
   -9.6967    5.3185   47.5989 H   0  0  0  0  0
  1  2  1  0  0  0
  1  3  1  0  0  0
  1  5  1  0  0  0
  1  6  1  0  0  0
  2  7  1  0  0  0
  3  4  1  0  0  0
  3  8  1  0  0  0
  3  9  1  0  0  0
  4 10  1  0  0  0
M  END
$$$$
