@<TRIPOS>MOLECULE
EDO_1_B_401
 10 9 0 0 0
SMALL
NO_CHARGES

@<TRIPOS>ATOM
      1 C1         37.1690   -8.2570   28.1790 C.3    401  EDO401      0.0000
      2 O1         37.4130   -7.0410   27.4480 O.3    401  EDO401      0.0000
      3 C2         38.0560   -9.3500   27.5890 C.3    401  EDO401      0.0000
      4 O2         39.4160   -8.9120   27.5380 O.3    401  EDO401      0.0000
      5 H          36.0959   -8.5264   28.1023 H      401  EDO401      0.0000
      6 H          37.4010   -8.0954   29.2526 H      401  EDO401      0.0000
      7 H          38.3573   -6.9638   27.3688 H      401  EDO401      0.0000
      8 H          37.7137   -9.6052   26.5634 H      401  EDO401      0.0000
      9 H          37.9821  -10.2733   28.2017 H      401  EDO401      0.0000
     10 H          39.9417   -9.6174   27.1851 H      401  EDO401      0.0000
@<TRIPOS>BOND
     1     1     2    1
     2     1     3    1
     3     1     5    1
     4     1     6    1
     5     2     7    1
     6     3     4    1
     7     3     8    1
     8     3     9    1
     9     4    10    1

