EDO_1_B_402
  -ISIS-            3D

 10  9  0  0  0  0  0  0  0  0  1 V2000
   34.7650    4.3220   11.8010 C   0  0  0  0  0
   33.5280    4.9100   12.2410 O   0  0  0  0  0
   34.5110    3.3250   10.6710 C   0  0  0  0  0
   34.9240    3.9140    9.4200 O   0  0  0  0  0
   35.2551    3.8163   12.6602 H   0  0  0  0  0
   35.4531    5.1284   11.4748 H   0  0  0  0  0
   33.1149    4.3196   12.8576 H   0  0  0  0  0
   33.4412    3.0336   10.6208 H   0  0  0  0  0
   35.0986    2.3979   10.8403 H   0  0  0  0  0
   34.6554    3.3372    8.7171 H   0  0  0  0  0
  1  2  1  0  0  0
  1  3  1  0  0  0
  1  5  1  0  0  0
  1  6  1  0  0  0
  2  7  1  0  0  0
  3  4  1  0  0  0
  3  8  1  0  0  0
  3  9  1  0  0  0
  4 10  1  0  0  0
M  END
$$$$
