@<TRIPOS>MOLECULE
EDO_1_A_401
 10 9 0 0 0
SMALL
NO_CHARGES

@<TRIPOS>ATOM
      1 C1         -9.5860    7.7760   46.2850 C.3    401  EDO401      0.0000
      2 O1         -9.4970    8.4160   44.9990 O.3    401  EDO401      0.0000
      3 C2        -10.4310    6.5030   46.2220 C.3    401  EDO401      0.0000
      4 O2        -10.4720    5.8570   47.5110 O.3    401  EDO401      0.0000
      5 H         -10.0276    8.4844   47.0179 H      401  EDO401      0.0000
      6 H          -8.5614    7.5329   46.6381 H      401  EDO401      0.0000
      7 H          -9.0304    9.2344   45.1066 H      401  EDO401      0.0000
      8 H         -10.0258    5.8010   45.4628 H      401  EDO401      0.0000
      9 H         -11.4686    6.7504   45.9160 H      401  EDO401      0.0000
     10 H          -9.6967    5.3185   47.5989 H      401  EDO401      0.0000
@<TRIPOS>BOND
     1     1     2    1
     2     1     3    1
     3     1     5    1
     4     1     6    1
     5     2     7    1
     6     3     4    1
     7     3     8    1
     8     3     9    1
     9     4    10    1

