@<TRIPOS>MOLECULE
2D0_1_A_201
 16 17 0 0 0
SMALL
NO_CHARGES

@<TRIPOS>ATOM
      1 C1        -49.1290  -29.1300    5.3200 C.ar   201  2D0201      0.0000
      2 C2        -47.8940  -29.4090    5.8830 C.ar   201  2D0201      0.0000
      3 C3        -49.2500  -28.9680    3.9330 C.ar   201  2D0201      0.0000
      4 C4        -46.7710  -29.5330    5.0550 C.ar   201  2D0201      0.0000
      5 C5        -48.1430  -29.0610    3.1220 C.ar   201  2D0201      0.0000
      6 C6        -46.8990  -29.3520    3.6820 C.ar   201  2D0201      0.0000
      7 N7        -50.2430  -29.0410    6.2360 N.ar   201  2D0201      0.0000
      8 C8        -49.7920  -29.2550    7.5160 C.ar   201  2D0201      0.0000
      9 S9        -48.1350  -29.5660    7.5260 S.3    201  2D0201      0.0000
     10 N10       -50.6370  -29.2370    8.6770 N.3    201  2D0201      0.0000
     11 CL1       -50.8370  -28.5930    3.2440 Cl     201  2D0201      0.0000
     12 H         -45.7879  -29.7701    5.4939 H      201  2D0201      0.0000
     13 H         -48.2317  -28.9125    2.0330 H      201  2D0201      0.0000
     14 H         -46.0120  -29.4389    3.0321 H      201  2D0201      0.0000
     15 H         -50.1818  -29.4170    9.5807 H      201  2D0201      0.0000
     16 H         -51.6291  -29.0436    8.4934 H      201  2D0201      0.0000
@<TRIPOS>BOND
     1     1     2   ar
     2     1     3   ar
     3     1     7   ar
     4     2     4   ar
     5     2     9   ar
     6     3     5   ar
     7     3    11    1
     8     4     6   ar
     9     4    12    1
    10     5     6   ar
    11     5    13    1
    12     6    14    1
    13     7     8   ar
    14     8     9   ar
    15     8    10    1
    16    10    15    1
    17    10    16    1

