DMS_2_A_401
  -ISIS-            3D

 10  9  0  0  0  0  0  0  0  0  1 V2000
  -17.9730  -31.6170   -5.7260 S   0  0  0  0  0
  -18.0280  -32.8050   -6.6310 O   0  0  0  0  0
  -16.4780  -30.6540   -6.0860 C   0  0  0  0  0
  -19.2600  -30.4330   -6.2100 C   0  0  0  0  0
  -16.4682  -29.7374   -5.4615 H   0  0  0  0  0
  -16.4607  -30.3738   -7.1592 H   0  0  0  0  0
  -15.5834  -31.2662   -5.8511 H   0  0  0  0  0
  -19.1803  -29.5219   -5.5826 H   0  0  0  0  0
  -20.2571  -30.8949   -6.0591 H   0  0  0  0  0
  -19.1382  -30.1613   -7.2786 H   0  0  0  0  0
  1  2  2  0  0  0
  1  3  1  0  0  0
  1  4  1  0  0  0
  3  5  1  0  0  0
  3  6  1  0  0  0
  3  7  1  0  0  0
  4  8  1  0  0  0
  4  9  1  0  0  0
  4 10  1  0  0  0
M  END
$$$$
