@<TRIPOS>MOLECULE
DMS_2_A_404
 10 9 0 0 0
SMALL
NO_CHARGES

@<TRIPOS>ATOM
      1 S           3.0230   15.5440  -22.5620 S.o    404  DMS404      0.0000
      2 O           2.8680   15.3260  -24.0380 O.2    404  DMS404      0.0000
      3 C1          1.6650   14.6810  -21.7950 C.3    404  DMS404      0.0000
      4 C2          4.3270   14.4570  -22.0060 C.3    404  DMS404      0.0000
      5 H           1.7908   14.6858  -20.6930 H      404  DMS404      0.0000
      6 H           1.6182   13.6337  -22.1580 H      404  DMS404      0.0000
      7 H           0.7151   15.1945  -22.0492 H      404  DMS404      0.0000
      8 H           4.3828   14.4729  -20.8984 H      404  DMS404      0.0000
      9 H           5.2950   14.8072  -22.4191 H      404  DMS404      0.0000
     10 H           4.1394   13.4202  -22.3534 H      404  DMS404      0.0000
@<TRIPOS>BOND
     1     1     2    2
     2     1     3    1
     3     1     4    1
     4     3     5    1
     5     3     6    1
     6     3     7    1
     7     4     8    1
     8     4     9    1
     9     4    10    1

