@<TRIPOS>MOLECULE
DMS_2_A_409
 10 9 0 0 0
SMALL
NO_CHARGES

@<TRIPOS>ATOM
      1 S          10.8590   -9.8970  -30.4880 S.o    409  DMS409      0.0000
      2 O          12.0350   -9.9290  -29.5270 O.2    409  DMS409      0.0000
      3 C1          9.8740  -11.3220  -30.1170 C.3    409  DMS409      0.0000
      4 C2         11.4900  -10.4760  -32.0220 C.3    409  DMS409      0.0000
      5 H           9.0827  -11.4453  -30.8845 H      409  DMS409      0.0000
      6 H           9.3918  -11.1852  -29.1274 H      409  DMS409      0.0000
      7 H          10.5048  -12.2340  -30.0859 H      409  DMS409      0.0000
      8 H          10.6594  -10.6252  -32.7419 H      409  DMS409      0.0000
      9 H          12.0352  -11.4324  -31.8847 H      409  DMS409      0.0000
     10 H          12.1891   -9.7224  -32.4389 H      409  DMS409      0.0000
@<TRIPOS>BOND
     1     1     2    2
     2     1     3    1
     3     1     4    1
     4     3     5    1
     5     3     6    1
     6     3     7    1
     7     4     8    1
     8     4     9    1
     9     4    10    1

