DMS_2_A_405
  -ISIS-            3D

 10  9  0  0  0  0  0  0  0  0  1 V2000
   16.4820    1.0790   -9.7050 S   0  0  0  0  0
   15.6030    1.8000  -10.7240 O   0  0  0  0  0
   17.6070    2.3230   -9.1300 C   0  0  0  0  0
   17.6070    0.1610  -10.6980 C   0  0  0  0  0
   18.4045    1.8547   -8.5177 H   0  0  0  0  0
   17.0567    3.0534   -8.5023 H   0  0  0  0  0
   18.0660    2.8576   -9.9871 H   0  0  0  0  0
   18.4075   -0.2686  -10.0617 H   0  0  0  0  0
   18.0630    0.8108  -11.4732 H   0  0  0  0  0
   17.0655   -0.6685  -11.1972 H   0  0  0  0  0
  1  2  2  0  0  0
  1  3  1  0  0  0
  1  4  1  0  0  0
  3  5  1  0  0  0
  3  6  1  0  0  0
  3  7  1  0  0  0
  4  8  1  0  0  0
  4  9  1  0  0  0
  4 10  1  0  0  0
M  END
$$$$
