@<TRIPOS>MOLECULE
DMS_2_A_405
 10 9 0 0 0
SMALL
NO_CHARGES

@<TRIPOS>ATOM
      1 S          16.4820    1.0790   -9.7050 S.o    405  DMS405      0.0000
      2 O          15.6030    1.8000  -10.7240 O.2    405  DMS405      0.0000
      3 C1         17.6070    2.3230   -9.1300 C.3    405  DMS405      0.0000
      4 C2         17.6070    0.1610  -10.6980 C.3    405  DMS405      0.0000
      5 H          18.4045    1.8547   -8.5177 H      405  DMS405      0.0000
      6 H          17.0567    3.0534   -8.5023 H      405  DMS405      0.0000
      7 H          18.0660    2.8576   -9.9871 H      405  DMS405      0.0000
      8 H          18.4075   -0.2686  -10.0617 H      405  DMS405      0.0000
      9 H          18.0630    0.8108  -11.4732 H      405  DMS405      0.0000
     10 H          17.0655   -0.6685  -11.1972 H      405  DMS405      0.0000
@<TRIPOS>BOND
     1     1     2    2
     2     1     3    1
     3     1     4    1
     4     3     5    1
     5     3     6    1
     6     3     7    1
     7     4     8    1
     8     4     9    1
     9     4    10    1

