@<TRIPOS>MOLECULE
DMS_2_A_411
 10 9 0 0 0
SMALL
NO_CHARGES

@<TRIPOS>ATOM
      1 S           0.6520  -14.9520  -21.2500 S.o    411  DMS411      0.0000
      2 O          -0.4190  -16.0000  -21.2070 O.2    411  DMS411      0.0000
      3 C1          0.9030  -14.5380  -22.9530 C.3    411  DMS411      0.0000
      4 C2          2.1630  -15.8380  -20.9920 C.3    411  DMS411      0.0000
      5 H           1.7927  -13.8834  -23.0547 H      411  DMS411      0.0000
      6 H           0.0139  -13.9941  -23.3326 H      411  DMS411      0.0000
      7 H           1.0489  -15.4564  -23.5578 H      411  DMS411      0.0000
      8 H           3.0279  -15.1604  -21.1446 H      411  DMS411      0.0000
      9 H           2.2363  -16.6936  -21.6944 H      411  DMS411      0.0000
     10 H           2.1902  -16.2222  -19.9517 H      411  DMS411      0.0000
@<TRIPOS>BOND
     1     1     2    2
     2     1     3    1
     3     1     4    1
     4     3     5    1
     5     3     6    1
     6     3     7    1
     7     4     8    1
     8     4     9    1
     9     4    10    1

