@<TRIPOS>MOLECULE
DMS_2_A_407
 10 9 0 0 0
SMALL
NO_CHARGES

@<TRIPOS>ATOM
      1 S          -4.8350  -17.5900  -17.5960 S.o    407  DMS407      0.0000
      2 O          -4.6690  -17.7530  -16.1410 O.2    407  DMS407      0.0000
      3 C1         -3.2010  -17.6990  -18.2750 C.3    407  DMS407      0.0000
      4 C2         -5.4810  -19.1060  -18.2560 C.3    407  DMS407      0.0000
      5 H          -3.2531  -17.7007  -19.3830 H      407  DMS407      0.0000
      6 H          -2.6984  -18.6251  -17.9279 H      407  DMS407      0.0000
      7 H          -2.6075  -16.8212  -17.9467 H      407  DMS407      0.0000
      8 H          -5.4837  -19.0633  -19.3644 H      407  DMS407      0.0000
      9 H          -6.5224  -19.2458  -17.9003 H      407  DMS407      0.0000
     10 H          -4.8662  -19.9663  -17.9204 H      407  DMS407      0.0000
@<TRIPOS>BOND
     1     1     2    2
     2     1     3    1
     3     1     4    1
     4     3     5    1
     5     3     6    1
     6     3     7    1
     7     4     8    1
     8     4     9    1
     9     4    10    1

