@<TRIPOS>MOLECULE
DMS_2_A_408
 10 9 0 0 0
SMALL
NO_CHARGES

@<TRIPOS>ATOM
      1 S          14.0390   -3.1560  -29.1730 S.o    408  DMS408      0.0000
      2 O          13.5810   -2.0730  -28.2310 O.2    408  DMS408      0.0000
      3 C1         15.8110   -3.0340  -29.2390 C.3    408  DMS408      0.0000
      4 C2         13.9220   -4.6680  -28.2580 C.3    408  DMS408      0.0000
      5 H          16.2266   -3.8963  -29.7998 H      408  DMS408      0.0000
      6 H          16.2358   -3.0198  -28.2146 H      408  DMS408      0.0000
      7 H          16.0946   -2.0971  -29.7608 H      408  DMS408      0.0000
      8 H          14.3795   -5.4955  -28.8383 H      408  DMS408      0.0000
      9 H          12.8538   -4.9060  -28.0774 H      408  DMS408      0.0000
     10 H          14.4401   -4.5711  -27.2822 H      408  DMS408      0.0000
@<TRIPOS>BOND
     1     1     2    2
     2     1     3    1
     3     1     4    1
     4     3     5    1
     5     3     6    1
     6     3     7    1
     7     4     8    1
     8     4     9    1
     9     4    10    1

