DMS_2_A_411
  -ISIS-            3D

 10  9  0  0  0  0  0  0  0  0  1 V2000
    0.6520  -14.9520  -21.2500 S   0  0  0  0  0
   -0.4190  -16.0000  -21.2070 O   0  0  0  0  0
    0.9030  -14.5380  -22.9530 C   0  0  0  0  0
    2.1630  -15.8380  -20.9920 C   0  0  0  0  0
    1.7927  -13.8834  -23.0547 H   0  0  0  0  0
    0.0139  -13.9941  -23.3326 H   0  0  0  0  0
    1.0489  -15.4564  -23.5578 H   0  0  0  0  0
    3.0279  -15.1604  -21.1446 H   0  0  0  0  0
    2.2363  -16.6936  -21.6944 H   0  0  0  0  0
    2.1902  -16.2222  -19.9517 H   0  0  0  0  0
  1  2  2  0  0  0
  1  3  1  0  0  0
  1  4  1  0  0  0
  3  5  1  0  0  0
  3  6  1  0  0  0
  3  7  1  0  0  0
  4  8  1  0  0  0
  4  9  1  0  0  0
  4 10  1  0  0  0
M  END
$$$$
