@<TRIPOS>MOLECULE
KNL_1_A_201
 18 18 0 0 0
SMALL
NO_CHARGES

@<TRIPOS>ATOM
      1 CL1       -43.2720  -35.3560   -1.9640 Cl     201  KNL201      0.0000
      2 O1        -42.8060  -31.6070    2.7330 O.co2  201  KNL201     -0.5000
      3 O2        -43.4260  -32.8360   -0.5820 O.3    201  KNL201      0.0000
      4 CL2       -45.9360  -31.5290    0.8710 Cl     201  KNL201      0.0000
      5 O3        -43.2410  -33.6020    1.9750 O.co2  201  KNL201     -0.5000
      6 C1        -43.0560  -32.3980    1.7900 C.2    201  KNL201      0.0000
      7 C2        -43.1090  -31.8640    0.3850 C.3    201  KNL201      0.0000
      8 C3        -46.9670  -35.0520   -0.6440 C.ar   201  KNL201      0.0000
      9 C4        -45.8390  -35.5100   -1.2250 C.ar   201  KNL201      0.0000
     10 C5        -44.7020  -34.7410   -1.1970 C.ar   201  KNL201      0.0000
     11 C6        -44.6550  -33.5180   -0.5740 C.ar   201  KNL201      0.0000
     12 C7        -45.8120  -33.0850    0.0210 C.ar   201  KNL201      0.0000
     13 C8        -46.9480  -33.8420   -0.0090 C.ar   201  KNL201      0.0000
     14 H         -43.7071  -30.9454    0.2552 H      201  KNL201      0.0000
     15 H         -42.0783  -31.5211    0.1460 H      201  KNL201      0.0000
     16 H         -47.8926  -35.6515   -0.6713 H      201  KNL201      0.0000
     17 H         -45.8394  -36.4936   -1.7246 H      201  KNL201      0.0000
     18 H         -47.8704  -33.4806    0.4773 H      201  KNL201      0.0000
@<TRIPOS>BOND
     1     1    10    1
     2     2     6   ar
     3     3     7    1
     4     3    11    1
     5     4    12    1
     6     5     6   ar
     7     6     7    1
     8     7    14    1
     9     7    15    1
    10     8     9   ar
    11     8    13   ar
    12     8    16    1
    13     9    10   ar
    14     9    17    1
    15    10    11   ar
    16    11    12   ar
    17    12    13   ar
    18    13    18    1

