@<TRIPOS>MOLECULE
EDO_1_A_408
 10 9 0 0 0
SMALL
NO_CHARGES

@<TRIPOS>ATOM
      1 C1         -1.5670  -14.0630   27.2300 C.3    408  EDO408      0.0000
      2 O1         -1.1400  -14.4130   28.5590 O.3    408  EDO408      0.0000
      3 C2         -2.3710  -12.7640   27.2620 C.3    408  EDO408      0.0000
      4 O2         -3.7780  -13.0600   27.2390 O.3    408  EDO408      0.0000
      5 H          -2.1394  -14.8945   26.7683 H      408  EDO408      0.0000
      6 H          -0.6570  -13.9204   26.6100 H      408  EDO408      0.0000
      7 H          -1.8200  -14.9419   28.9549 H      408  EDO408      0.0000
      8 H          -2.1377  -12.1604   26.3597 H      408  EDO408      0.0000
      9 H          -2.1127  -12.1370   28.1408 H      408  EDO408      0.0000
     10 H          -4.0816  -13.1144   28.1356 H      408  EDO408      0.0000
@<TRIPOS>BOND
     1     1     2    1
     2     1     3    1
     3     1     5    1
     4     1     6    1
     5     2     7    1
     6     3     4    1
     7     3     8    1
     8     3     9    1
     9     4    10    1

