@<TRIPOS>MOLECULE
EDO_1_A_407
 10 9 0 0 0
SMALL
NO_CHARGES

@<TRIPOS>ATOM
      1 C1         14.1120    3.0540    6.4750 C.3    407  EDO407      0.0000
      2 O1         14.2100    2.4250    5.1880 O.3    407  EDO407      0.0000
      3 C2         14.4020    2.0160    7.5500 C.3    407  EDO407      0.0000
      4 O2         15.0120    2.6550    8.6800 O.3    407  EDO407      0.0000
      5 H          13.1039    3.4977    6.6123 H      407  EDO407      0.0000
      6 H          14.8534    3.8797    6.5253 H      407  EDO407      0.0000
      7 H          14.0670    3.0876    4.5252 H      407  EDO407      0.0000
      8 H          15.1001    1.2444    7.1607 H      407  EDO407      0.0000
      9 H          13.4705    1.4971    7.8589 H      407  EDO407      0.0000
     10 H          15.2211    1.9866    9.3190 H      407  EDO407      0.0000
@<TRIPOS>BOND
     1     1     2    1
     2     1     3    1
     3     1     5    1
     4     1     6    1
     5     2     7    1
     6     3     4    1
     7     3     8    1
     8     3     9    1
     9     4    10    1

