EDO_2_A_405
  -ISIS-            3D

 10  9  0  0  0  0  0  0  0  0  1 V2000
   13.1280   10.9130  -17.9020 C   0  0  0  0  0
   12.3470   12.0180  -17.4520 O   0  0  0  0  0
   14.4660   10.8970  -17.1710 C   0  0  0  0  0
   14.7200    9.6120  -16.5770 O   0  0  0  0  0
   13.2831   10.9856  -18.9990 H   0  0  0  0  0
   12.5706    9.9718  -17.7104 H   0  0  0  0  0
   11.4946   11.9663  -17.8638 H   0  0  0  0  0
   14.4782   11.6684  -16.3719 H   0  0  0  0  0
   15.2897   11.1481  -17.8722 H   0  0  0  0  0
   15.5196    9.6735  -16.0713 H   0  0  0  0  0
  1  2  1  0  0  0
  1  3  1  0  0  0
  1  5  1  0  0  0
  1  6  1  0  0  0
  2  7  1  0  0  0
  3  4  1  0  0  0
  3  8  1  0  0  0
  3  9  1  0  0  0
  4 10  1  0  0  0
M  END
$$$$
