EDO_1_A_408
  -ISIS-            3D

 10  9  0  0  0  0  0  0  0  0  1 V2000
   -1.5670  -14.0630   27.2300 C   0  0  0  0  0
   -1.1400  -14.4130   28.5590 O   0  0  0  0  0
   -2.3710  -12.7640   27.2620 C   0  0  0  0  0
   -3.7780  -13.0600   27.2390 O   0  0  0  0  0
   -2.1394  -14.8945   26.7683 H   0  0  0  0  0
   -0.6570  -13.9204   26.6100 H   0  0  0  0  0
   -1.8200  -14.9419   28.9549 H   0  0  0  0  0
   -2.1377  -12.1604   26.3597 H   0  0  0  0  0
   -2.1127  -12.1370   28.1408 H   0  0  0  0  0
   -4.0816  -13.1144   28.1356 H   0  0  0  0  0
  1  2  1  0  0  0
  1  3  1  0  0  0
  1  5  1  0  0  0
  1  6  1  0  0  0
  2  7  1  0  0  0
  3  4  1  0  0  0
  3  8  1  0  0  0
  3  9  1  0  0  0
  4 10  1  0  0  0
M  END
$$$$
