@<TRIPOS>MOLECULE
EDO_1_A_404
 10 9 0 0 0
SMALL
NO_CHARGES

@<TRIPOS>ATOM
      1 C1        -10.7390    0.4850   -5.1470 C.3    404  EDO404      0.0000
      2 O1         -9.3550    0.8670   -5.0740 O.3    404  EDO404      0.0000
      3 C2        -11.0420   -0.0760   -6.5290 C.3    404  EDO404      0.0000
      4 O2        -10.2400   -1.2460   -6.7340 O.3    404  EDO404      0.0000
      5 H         -11.3675    1.3765   -4.9437 H      404  EDO404      0.0000
      6 H         -10.9611   -0.2617   -4.3561 H      404  EDO404      0.0000
      7 H          -8.8600    0.1539   -5.4612 H      404  EDO404      0.0000
      8 H         -10.8033    0.6702   -7.3149 H      404  EDO404      0.0000
      9 H         -12.1197   -0.3252   -6.6282 H      404  EDO404      0.0000
     10 H         -10.7570   -2.0096   -6.5139 H      404  EDO404      0.0000
@<TRIPOS>BOND
     1     1     2    1
     2     1     3    1
     3     1     5    1
     4     1     6    1
     5     2     7    1
     6     3     4    1
     7     3     8    1
     8     3     9    1
     9     4    10    1

