@<TRIPOS>MOLECULE
EDO_1_A_403
 10 9 0 0 0
SMALL
NO_CHARGES

@<TRIPOS>ATOM
      1 C1        -10.1420   14.1450   18.7270 C.3    403  EDO403      0.0000
      2 O1        -10.4000   13.8550   20.1060 O.3    403  EDO403      0.0000
      3 C2         -9.1820   15.3210   18.6860 C.3    403  EDO403      0.0000
      4 O2         -9.7800   16.4080   19.3980 O.3    403  EDO403      0.0000
      5 H         -11.0921   14.3898   18.2069 H      403  EDO403      0.0000
      6 H          -9.6966   13.2580   18.2296 H      403  EDO403      0.0000
      7 H         -10.9938   13.1173   20.1461 H      403  EDO403      0.0000
      8 H          -8.9833   15.6333   17.6405 H      403  EDO403      0.0000
      9 H          -8.2071   15.0605   19.1493 H      403  EDO403      0.0000
     10 H         -10.0767   16.0509   20.2276 H      403  EDO403      0.0000
@<TRIPOS>BOND
     1     1     2    1
     2     1     3    1
     3     1     5    1
     4     1     6    1
     5     2     7    1
     6     3     4    1
     7     3     8    1
     8     3     9    1
     9     4    10    1

