@<TRIPOS>MOLECULE
APG_1_A_201
 21 21 0 0 0
SMALL
NO_CHARGES

@<TRIPOS>ATOM
      1 C1        -46.4310  -33.2490    0.3560 C.ar   201  APG201      0.0000
      2 C2        -46.3840  -32.0820    1.1550 C.ar   201  APG201      0.0000
      3 C3        -45.3080  -31.2640    1.1500 C.ar   201  APG201      0.0000
      4 C4        -44.2470  -31.5510    0.3560 C.ar   201  APG201      0.0000
      5 C5        -44.2750  -32.6750   -0.4640 C.ar   201  APG201      0.0000
      6 C6        -45.3640  -33.5250   -0.4570 C.ar   201  APG201      0.0000
      7 C12       -45.2570  -30.0300    2.0600 C.3    201  APG201      0.0000
      8 O17       -45.2430  -28.8800    1.3270 O.3    201  APG201      0.0000
      9 C13       -44.0560  -30.0960    2.9780 C.2    201  APG201      0.0000
     10 C14       -46.4070  -29.8110    3.0200 C.3    201  APG201      0.0000
     11 O14       -43.4160  -29.0720    3.2890 O.co2  201  APG201     -0.5000
     12 O15       -43.6480  -31.1450    3.4700 O.co2  201  APG201     -0.5000
     13 H         -47.3107  -33.9140    0.3833 H      201  APG201      0.0000
     14 H         -47.2600  -31.8724    1.7897 H      201  APG201      0.0000
     15 H         -43.3568  -30.8991    0.3410 H      201  APG201      0.0000
     16 H         -43.4149  -32.8936   -1.1201 H      201  APG201      0.0000
     17 H         -45.3731  -34.4202   -1.1019 H      201  APG201      0.0000
     18 H         -44.6737  -28.2361    1.7381 H      201  APG201      0.0000
     19 H         -46.2703  -28.9052    3.6521 H      201  APG201      0.0000
     20 H         -46.5375  -30.6656    3.7201 H      201  APG201      0.0000
     21 H         -47.3748  -29.6753    2.4883 H      201  APG201      0.0000
@<TRIPOS>BOND
     1     1     2   ar
     2     1     6   ar
     3     1    13    1
     4     2     3   ar
     5     2    14    1
     6     3     4   ar
     7     3     7    1
     8     4     5   ar
     9     4    15    1
    10     5     6   ar
    11     5    16    1
    12     6    17    1
    13     7     8    1
    14     7     9    1
    15     7    10    1
    16     8    18    1
    17     9    11   ar
    18     9    12   ar
    19    10    19    1
    20    10    20    1
    21    10    21    1

