@<TRIPOS>MOLECULE
DMS_1_A_402
 10 9 0 0 0
SMALL
NO_CHARGES

@<TRIPOS>ATOM
      1 S          -4.3960   56.4080   15.9810 S.o    402  DMS402      0.0000
      2 O          -5.4380   56.9110   16.9540 O.2    402  DMS402      0.0000
      3 C1         -3.8810   54.8440   16.6130 C.3    402  DMS402      0.0000
      4 C2         -2.9170   57.3160   16.3460 C.3    402  DMS402      0.0000
      5 H          -3.0069   54.4744   16.0391 H      402  DMS402      0.0000
      6 H          -4.7102   54.1147   16.5082 H      402  DMS402      0.0000
      7 H          -3.6091   54.9282   17.6853 H      402  DMS402      0.0000
      8 H          -2.0649   56.8929   15.7759 H      402  DMS402      0.0000
      9 H          -2.6931   57.2725   17.4318 H      402  DMS402      0.0000
     10 H          -3.0551   58.3756   16.0484 H      402  DMS402      0.0000
@<TRIPOS>BOND
     1     1     2    2
     2     1     3    1
     3     1     4    1
     4     3     5    1
     5     3     6    1
     6     3     7    1
     7     4     8    1
     8     4     9    1
     9     4    10    1

