@<TRIPOS>MOLECULE
K36_1_A_401
 60 61 0 0 0
SMALL
NO_CHARGES

@<TRIPOS>ATOM
      1 C7        -20.3210   66.2180    3.1190 C.3    401  K36401      0.0000
      2 O8        -20.5280   65.5840    1.8290 O.3    401  K36401      0.0000
      3 C9        -20.3250   64.2540    1.7650 C.2    401  K36401      0.0000
      4 O10       -19.8130   63.5900    2.6400 O.2    401  K36401      0.0000
      5 C1        -20.5020   67.7070    3.0360 C.ar   401  K36401      0.0000
      6 C2        -19.7580   68.5380    3.8580 C.ar   401  K36401      0.0000
      7 C3        -19.8590   69.9170    3.7520 C.ar   401  K36401      0.0000
      8 C4        -20.7220   70.4810    2.8340 C.ar   401  K36401      0.0000
      9 C5        -21.4820   69.6670    2.0250 C.ar   401  K36401      0.0000
     10 C6        -21.3710   68.2870    2.1230 C.ar   401  K36401      0.0000
     11 N11       -20.8440   63.7630    0.6320 N.am   401  K36401      0.0000
     12 C12       -20.8950   62.3260    0.3820 C.3    401  K36401      0.0000
     13 C17       -19.5550   61.8060   -0.1420 C.2    401  K36401      0.0000
     14 O18       -18.8990   62.4700   -0.9740 O.2    401  K36401      0.0000
     15 C13       -21.9940   61.9920   -0.6280 C.3    401  K36401      0.0000
     16 C14       -23.3810   62.3930   -0.1740 C.3    401  K36401      0.0000
     17 C15       -24.3840   62.2380   -1.2970 C.3    401  K36401      0.0000
     18 C16       -23.7830   61.5780    0.9980 C.3    401  K36401      0.0000
     19 N19       -19.1390   60.6480    0.3800 N.am   401  K36401      0.0000
     20 C20       -17.8910   60.0000   -0.0120 C.3    401  K36401      0.0000
     21 C21       -18.1860   58.5550   -0.5470 C.3    401  K36401      0.0000
     22 O22       -16.9990   58.1040   -1.1800 O.3    401  K36401      0.0000
     23 C24       -16.9100   59.9390    1.1590 C.3    401  K36401      0.0000
     24 C25       -16.4220   61.2790    1.6960 C.3    401  K36401      0.0000
     25 C26       -15.6000   62.0800    0.6840 C.3    401  K36401      0.0000
     26 C27       -14.5600   62.7990    1.5260 C.3    401  K36401      0.0000
     27 N28       -14.4320   61.9460    2.6830 N.am   401  K36401      0.0000
     28 C29       -15.4770   61.1470    2.8780 C.2    401  K36401      0.0000
     29 O30       -15.6430   60.4420    3.8540 O.2    401  K36401      0.0000
     30 H         -19.2992   65.9930    3.4917 H      401  K36401      0.0000
     31 H         -21.0408   65.8161    3.8634 H      401  K36401      0.0000
     32 H         -19.0642   68.1081    4.6010 H      401  K36401      0.0000
     33 H         -19.2496   70.5652    4.4050 H      401  K36401      0.0000
     34 H         -20.8037   71.5783    2.7512 H      401  K36401      0.0000
     35 H         -22.1781   70.1119    1.2933 H      401  K36401      0.0000
     36 H         -21.9812   67.6515    1.4590 H      401  K36401      0.0000
     37 H         -21.1942   64.4209   -0.0757 H      401  K36401      0.0000
     38 H         -21.1184   61.7930    1.3349 H      401  K36401      0.0000
     39 H         -21.9718   60.8998   -0.8511 H      401  K36401      0.0000
     40 H         -21.7586   62.5050   -1.5899 H      401  K36401      0.0000
     41 H         -23.3763   63.4696    0.1238 H      401  K36401      0.0000
     42 H         -25.4057   62.5523   -0.9863 H      401  K36401      0.0000
     43 H         -24.4586   61.1847   -1.6491 H      401  K36401      0.0000
     44 H         -24.1147   62.8597   -2.1803 H      401  K36401      0.0000
     45 H         -24.8304   61.7945    1.3069 H      401  K36401      0.0000
     46 H         -23.1597   61.7740    1.8973 H      401  K36401      0.0000
     47 H         -23.7322   60.4848    0.7950 H      401  K36401      0.0000
     48 H         -19.7123   60.1824    1.0969 H      401  K36401      0.0000
     49 H         -17.4077   60.5668   -0.8416 H      401  K36401      0.0000
     50 H         -19.0270   58.5642   -1.2738 H      401  K36401      0.0000
     51 H         -18.4588   57.8669    0.2799 H      401  K36401      0.0000
     52 H         -16.9914   58.4137   -2.0763 H      401  K36401      0.0000
     53 H         -16.0205   59.3363    0.8622 H      401  K36401      0.0000
     54 H         -17.3910   59.3759    1.9927 H      401  K36401      0.0000
     55 H         -17.2936   61.8911    2.0307 H      401  K36401      0.0000
     56 H         -16.2216   62.7872    0.0910 H      401  K36401      0.0000
     57 H         -15.0895   61.3925   -0.0294 H      401  K36401      0.0000
     58 H         -14.9175   63.8145    1.8123 H      401  K36401      0.0000
     59 H         -13.6015   62.9159    0.9722 H      401  K36401      0.0000
     60 H         -13.6348   61.9615    3.3321 H      401  K36401      0.0000
@<TRIPOS>BOND
     1     1     2    1
     2     1     5    1
     3     1    30    1
     4     1    31    1
     5     2     3    1
     6     3     4    2
     7     3    11    1
     8     5     6   ar
     9     5    10   ar
    10     6     7   ar
    11     6    32    1
    12     7     8   ar
    13     7    33    1
    14     8     9   ar
    15     8    34    1
    16     9    10   ar
    17     9    35    1
    18    10    36    1
    19    11    12    1
    20    11    37    1
    21    12    13    1
    22    12    15    1
    23    12    38    1
    24    13    14    2
    25    13    19    1
    26    15    16    1
    27    15    39    1
    28    15    40    1
    29    16    17    1
    30    16    18    1
    31    16    41    1
    32    17    42    1
    33    17    43    1
    34    17    44    1
    35    18    45    1
    36    18    46    1
    37    18    47    1
    38    19    20    1
    39    19    48    1
    40    20    21    1
    41    20    23    1
    42    20    49    1
    43    21    22    1
    44    21    50    1
    45    21    51    1
    46    22    52    1
    47    23    24    1
    48    23    53    1
    49    23    54    1
    50    24    25    1
    51    24    28    1
    52    24    55    1
    53    25    26    1
    54    25    56    1
    55    25    57    1
    56    26    27    1
    57    26    58    1
    58    26    59    1
    59    27    28    1
    60    27    60    1
    61    28    29    2

