@<TRIPOS>MOLECULE
K36_1_B_401
 60 61 0 0 0
SMALL
NO_CHARGES

@<TRIPOS>ATOM
      1 C7         11.2160   37.3660   28.3240 C.3    401  K36401      0.0000
      2 O8         11.8690   36.2440   27.6470 O.3    401  K36401      0.0000
      3 C9         11.6210   36.0960   26.3240 C.2    401  K36401      0.0000
      4 O10        11.0670   36.9210   25.6300 O.2    401  K36401      0.0000
      5 C1          9.8000   37.0300   28.7160 C.ar   401  K36401      0.0000
      6 C2          8.9750   38.0130   29.2480 C.ar   401  K36401      0.0000
      7 C3          7.6840   37.7110   29.6590 C.ar   401  K36401      0.0000
      8 C4          7.2000   36.4240   29.5380 C.ar   401  K36401      0.0000
      9 C5          8.0040   35.4400   29.0010 C.ar   401  K36401      0.0000
     10 C6          9.2960   35.7390   28.5930 C.ar   401  K36401      0.0000
     11 N11        12.0680   34.9060   25.8900 N.am   401  K36401      0.0000
     12 C12        11.6500   34.4290   24.5880 C.3    401  K36401      0.0000
     13 C17        10.1290   34.2520   24.5420 C.2    401  K36401      0.0000
     14 O18         9.5260   33.7270   25.4750 O.2    401  K36401      0.0000
     15 C13        12.3800   33.1330   24.2170 C.3    401  K36401      0.0000
     16 C14        13.9130   33.2240   24.2150 C.3    401  K36401      0.0000
     17 C15        14.6000   31.8910   23.8990 C.3    401  K36401      0.0000
     18 C16        14.4070   34.3130   23.2980 C.3    401  K36401      0.0000
     19 N19         9.5250   34.6910   23.4300 N.am   401  K36401      0.0000
     20 C20         8.0910   34.6140   23.1680 C.3    401  K36401      0.0000
     21 C21         7.8380   33.7720   21.8660 C.3    401  K36401      0.0000
     22 O22         6.4410   33.5240   21.8110 O.3    401  K36401      0.0000
     23 C24         7.4990   36.0220   23.0650 C.3    401  K36401      0.0000
     24 C25         7.4780   36.7870   24.3950 C.3    401  K36401      0.0000
     25 C26         6.6770   36.1270   25.5350 C.3    401  K36401      0.0000
     26 C27         5.9590   37.2420   26.2360 C.3    401  K36401      0.0000
     27 N28         5.9430   38.3060   25.2420 N.am   401  K36401      0.0000
     28 C29         6.8300   38.1520   24.2590 C.2    401  K36401      0.0000
     29 O30         7.0560   38.9620   23.3640 O.2    401  K36401      0.0000
     30 H          11.2359   38.2821   27.6981 H      401  K36401      0.0000
     31 H          11.7888   37.6055   29.2444 H      401  K36401      0.0000
     32 H           9.3463   39.0469   29.3541 H      401  K36401      0.0000
     33 H           7.0435   38.5026   30.0844 H      401  K36401      0.0000
     34 H           6.1746   36.1832   29.8669 H      401  K36401      0.0000
     35 H           7.6216   34.4101   28.8960 H      401  K36401      0.0000
     36 H           9.9144   34.9284   28.1745 H      401  K36401      0.0000
     37 H          12.6329   34.3234   26.5200 H      401  K36401      0.0000
     38 H          11.9196   35.1957   23.8236 H      401  K36401      0.0000
     39 H          12.0360   32.8032   23.2089 H      401  K36401      0.0000
     40 H          12.0672   32.3308   24.9256 H      401  K36401      0.0000
     41 H          14.2368   33.4971   25.2498 H      401  K36401      0.0000
     42 H          15.7079   31.9667   23.9751 H      401  K36401      0.0000
     43 H          14.3618   31.5401   22.8700 H      401  K36401      0.0000
     44 H          14.2807   31.0894   24.6022 H      401  K36401      0.0000
     45 H          15.5190   34.3414   23.2580 H      401  K36401      0.0000
     46 H          14.0870   35.3269   23.6234 H      401  K36401      0.0000
     47 H          14.0505   34.1706   22.2533 H      401  K36401      0.0000
     48 H          10.1031   35.1319   22.7012 H      401  K36401      0.0000
     49 H           7.5790   34.0767   23.9998 H      401  K36401      0.0000
     50 H           8.3881   32.8075   21.9167 H      401  K36401      0.0000
     51 H           8.1741   34.3221   20.9614 H      401  K36401      0.0000
     52 H           6.2585   33.0022   21.0410 H      401  K36401      0.0000
     53 H           6.4533   35.9537   22.6857 H      401  K36401      0.0000
     54 H           8.0666   36.6065   22.3045 H      401  K36401      0.0000
     55 H           8.5258   36.9521   24.7416 H      401  K36401      0.0000
     56 H           7.3286   35.5448   26.2229 H      401  K36401      0.0000
     57 H           5.9283   35.4211   25.1068 H      401  K36401      0.0000
     58 H           6.5165   37.5641   27.1425 H      401  K36401      0.0000
     59 H           4.9363   36.9374   26.5526 H      401  K36401      0.0000
     60 H           5.3307   39.1307   25.2896 H      401  K36401      0.0000
@<TRIPOS>BOND
     1     1     2    1
     2     1     5    1
     3     1    30    1
     4     1    31    1
     5     2     3    1
     6     3     4    2
     7     3    11    1
     8     5     6   ar
     9     5    10   ar
    10     6     7   ar
    11     6    32    1
    12     7     8   ar
    13     7    33    1
    14     8     9   ar
    15     8    34    1
    16     9    10   ar
    17     9    35    1
    18    10    36    1
    19    11    12    1
    20    11    37    1
    21    12    13    1
    22    12    15    1
    23    12    38    1
    24    13    14    2
    25    13    19    1
    26    15    16    1
    27    15    39    1
    28    15    40    1
    29    16    17    1
    30    16    18    1
    31    16    41    1
    32    17    42    1
    33    17    43    1
    34    17    44    1
    35    18    45    1
    36    18    46    1
    37    18    47    1
    38    19    20    1
    39    19    48    1
    40    20    21    1
    41    20    23    1
    42    20    49    1
    43    21    22    1
    44    21    50    1
    45    21    51    1
    46    22    52    1
    47    23    24    1
    48    23    53    1
    49    23    54    1
    50    24    25    1
    51    24    28    1
    52    24    55    1
    53    25    26    1
    54    25    56    1
    55    25    57    1
    56    26    27    1
    57    26    58    1
    58    26    59    1
    59    27    28    1
    60    27    60    1
    61    28    29    2

