DMS_1_A_401
  -ISIS-            3D

 10  9  0  0  0  0  0  0  0  0  1 V2000
    5.8160   -1.0950   -6.5700 S   0  0  0  0  0
    6.7100   -0.6460   -7.6830 O   0  0  0  0  0
    6.7560   -1.1210   -5.0190 C   0  0  0  0  0
    5.4380   -2.8610   -6.7550 C   0  0  0  0  0
    6.1136   -1.5092   -4.2024 H   0  0  0  0  0
    7.0798   -0.0897   -4.7704 H   0  0  0  0  0
    7.6488   -1.7698   -5.1312 H   0  0  0  0  0
    4.8287   -3.2020   -5.8932 H   0  0  0  0  0
    6.3805   -3.4444   -6.7994 H   0  0  0  0  0
    4.8651   -3.0158   -7.6921 H   0  0  0  0  0
  1  2  2  0  0  0
  1  3  1  0  0  0
  1  4  1  0  0  0
  3  5  1  0  0  0
  3  6  1  0  0  0
  3  7  1  0  0  0
  4  8  1  0  0  0
  4  9  1  0  0  0
  4 10  1  0  0  0
M  END
$$$$
