@<TRIPOS>MOLECULE
DMS_1_A_402
 10 9 0 0 0
SMALL
NO_CHARGES

@<TRIPOS>ATOM
      1 S           6.2290    0.2880   18.4710 S.o    402  DMS402      0.0000
      2 O           7.2630    0.7350   17.4880 O.2    402  DMS402      0.0000
      3 C1          5.4830    1.7270   19.2900 C.3    402  DMS402      0.0000
      4 C2          7.0350   -0.5000   19.8930 C.3    402  DMS402      0.0000
      5 H           4.7611    1.3835   20.0590 H      402  DMS402      0.0000
      6 H           4.9489    2.3401   18.5352 H      402  DMS402      0.0000
      7 H           6.2741    2.3397   19.7681 H      402  DMS402      0.0000
      8 H           6.2696   -0.7795   20.6456 H      402  DMS402      0.0000
      9 H           7.7660    0.1997   20.3466 H      402  DMS402      0.0000
     10 H           7.5636   -1.4141   19.5527 H      402  DMS402      0.0000
@<TRIPOS>BOND
     1     1     2    2
     2     1     3    1
     3     1     4    1
     4     3     5    1
     5     3     6    1
     6     3     7    1
     7     4     8    1
     8     4     9    1
     9     4    10    1

