@<TRIPOS>MOLECULE
DMS_2_A_401
 10 9 0 0 0
SMALL
NO_CHARGES

@<TRIPOS>ATOM
      1 S          -5.8160   -1.0950    6.5700 S.o    401  DMS401      0.0000
      2 O          -6.7100   -0.6460    7.6830 O.2    401  DMS401      0.0000
      3 C1         -6.7560   -1.1210    5.0190 C.3    401  DMS401      0.0000
      4 C2         -5.4380   -2.8610    6.7550 C.3    401  DMS401      0.0000
      5 H          -6.1136   -1.5092    4.2024 H      401  DMS401      0.0000
      6 H          -7.0798   -0.0897    4.7704 H      401  DMS401      0.0000
      7 H          -7.6488   -1.7698    5.1312 H      401  DMS401      0.0000
      8 H          -4.8287   -3.2020    5.8932 H      401  DMS401      0.0000
      9 H          -6.3805   -3.4444    6.7994 H      401  DMS401      0.0000
     10 H          -4.8651   -3.0158    7.6921 H      401  DMS401      0.0000
@<TRIPOS>BOND
     1     1     2    2
     2     1     3    1
     3     1     4    1
     4     3     5    1
     5     3     6    1
     6     3     7    1
     7     4     8    1
     8     4     9    1
     9     4    10    1

