@<TRIPOS>MOLECULE
S89_1_A_307
 60 62 0 0 0
SMALL
NO_CHARGES

@<TRIPOS>ATOM
      1 CAZ        16.7550    1.1700   23.0170 C.2    307  S89307      0.0000
      2 OAB        15.6770    1.1720   22.4280 O.2    307  S89307      0.0000
      3 CAE        17.1540    2.2940   23.9610 C.3    307  S89307      0.0000
      4 CAF        17.1340    3.6520   23.2900 C.3    307  S89307      0.0000
      5 CBB        17.0380    4.8060   24.2620 C.ar   307  S89307      0.0000
      6 CAP        16.7600    4.6000   25.6120 C.ar   307  S89307      0.0000
      7 CAJ        16.6880    5.7020   26.4640 C.ar   307  S89307      0.0000
      8 CAG        16.8720    7.0020   25.9860 C.ar   307  S89307      0.0000
      9 CAK        17.1480    7.2030   24.6380 C.ar   307  S89307      0.0000
     10 CAQ        17.2260    6.1080   23.7740 C.ar   307  S89307      0.0000
     11 NAY        17.6450    0.1720   22.8700 N.am   307  S89307      0.0000
     12 CBF        17.3100   -0.9730   22.0310 C.3    307  S89307      0.0000
     13 CBA        16.7340   -1.9350   23.0280 C.2    307  S89307      0.0000
     14 OAC        17.4100   -2.8660   23.4690 O.2    307  S89307      0.0000
     15 CAW        18.6110   -1.5010   21.4550 C.3    307  S89307      0.0000
     16 CBD        18.8590   -0.7340   20.1920 C.ar   307  S89307      0.0000
     17 CAU        18.1810   -1.0860   19.0220 C.ar   307  S89307      0.0000
     18 CAT        19.7680    0.3370   20.2060 C.ar   307  S89307      0.0000
     19 CAO        18.4090   -0.3670   17.8560 C.ar   307  S89307      0.0000
     20 CAN        20.0150    1.0550   19.0410 C.ar   307  S89307      0.0000
     21 CAI        19.3310    0.6910   17.8720 C.ar   307  S89307      0.0000
     22 N          15.4800   -1.6410   23.4110 N.am   307  S89307      0.0000
     23 CA         14.7190   -2.3680   24.4270 C.3    307  S89307      0.0000
     24 C          14.4120   -3.8170   24.0690 C.2    307  S89307      0.0000
     25 O          13.9420   -4.5450   24.9570 O.2    307  S89307      0.0000
     26 CB         13.4170   -1.5400   24.5430 C.3    307  S89307      0.0000
     27 CG         13.4260   -0.1830   25.2440 C.ar   307  S89307      0.0000
     28 CD1        12.2190    0.5500   25.2440 C.ar   307  S89307      0.0000
     29 CD2        14.5490    0.3330   25.9000 C.ar   307  S89307      0.0000
     30 CE1        12.1390    1.7800   25.9010 C.ar   307  S89307      0.0000
     31 CE2        14.4830    1.5800   26.5440 C.ar   307  S89307      0.0000
     32 CZ         13.2720    2.2940   26.5430 C.ar   307  S89307      0.0000
     33 H          18.1433    2.1126   24.4383 H      307  S89307      0.0000
     34 H          16.3938    2.2466   24.7667 H      307  S89307      0.0000
     35 H          16.2600    3.7181   22.6018 H      307  S89307      0.0000
     36 H          18.0456    3.7632   22.6590 H      307  S89307      0.0000
     37 H          16.6024    3.6092   26.0560 H      307  S89307      0.0000
     38 H          16.4767    5.5463   27.5363 H      307  S89307      0.0000
     39 H          16.8032    7.8619   26.6737 H      307  S89307      0.0000
     40 H          17.3009    8.2247   24.2506 H      307  S89307      0.0000
     41 H          17.4385    6.2741   22.7041 H      307  S89307      0.0000
     42 H          18.5428    0.2054   23.3694 H      307  S89307      0.0000
     43 H          16.5723   -0.7525   21.2262 H      307  S89307      0.0000
     44 H          18.5093   -2.5791   21.1918 H      307  S89307      0.0000
     45 H          19.4628   -1.4299   22.1671 H      307  S89307      0.0000
     46 H          17.4664   -1.9266   19.0140 H      307  S89307      0.0000
     47 H          20.2945    0.6138   21.1350 H      307  S89307      0.0000
     48 H          17.8772   -0.6276   16.9253 H      307  S89307      0.0000
     49 H          20.7317    1.8933   19.0351 H      307  S89307      0.0000
     50 H          19.5192    1.2541   16.9415 H      307  S89307      0.0000
     51 H          15.0540   -0.7988   22.9832 H      307  S89307      0.0000
     52 H          15.2531   -2.3647   25.4055 H      307  S89307      0.0000
     53 H          14.5929   -4.2039   23.0379 H      307  S89307      0.0000
     54 H          12.6839   -2.1626   25.1090 H      307  S89307      0.0000
     55 H          12.9676   -1.4196   23.5295 H      307  S89307      0.0000
     56 H          11.3265    0.1514   24.7321 H      307  S89307      0.0000
     57 H          15.5004   -0.2225   25.9221 H      307  S89307      0.0000
     58 H          11.1919    2.3457   25.9092 H      307  S89307      0.0000
     59 H          15.3677    1.9878   27.0598 H      307  S89307      0.0000
     60 H          13.2141    3.2697   27.0552 H      307  S89307      0.0000
@<TRIPOS>BOND
     1     1     2    2
     2     1     3    1
     3     1    11    1
     4     3     4    1
     5     3    33    1
     6     3    34    1
     7     4     5    1
     8     4    35    1
     9     4    36    1
    10     5     6   ar
    11     5    10   ar
    12     6     7   ar
    13     6    37    1
    14     7     8   ar
    15     7    38    1
    16     8     9   ar
    17     8    39    1
    18     9    10   ar
    19     9    40    1
    20    10    41    1
    21    11    12    1
    22    11    42    1
    23    12    13    1
    24    12    15    1
    25    12    43    1
    26    13    14    2
    27    13    22    1
    28    15    16    1
    29    15    44    1
    30    15    45    1
    31    16    17   ar
    32    16    18   ar
    33    17    19   ar
    34    17    46    1
    35    18    20   ar
    36    18    47    1
    37    19    21   ar
    38    19    48    1
    39    20    21   ar
    40    20    49    1
    41    21    50    1
    42    22    23    1
    43    22    51    1
    44    23    24    1
    45    23    26    1
    46    23    52    1
    47    24    25    2
    48    24    53    1
    49    26    27    1
    50    26    54    1
    51    26    55    1
    52    27    28   ar
    53    27    29   ar
    54    28    30   ar
    55    28    56    1
    56    29    31   ar
    57    29    57    1
    58    30    32   ar
    59    30    58    1
    60    31    32   ar
    61    31    59    1
    62    32    60    1

