ALD_2_A_401
  -ISIS-            3D

 77 77  0  0  0  0  0  0  0  0  1 V2000
    6.1440  -22.2900   47.2750 C   0  0  0  0  0
    6.4950  -22.7780   48.3350 O   0  0  0  0  0
    6.9330  -21.2580   46.6790 O   0  0  0  0  0
    8.1520  -20.7850   47.2870 C   0  0  0  0  0
    7.7960  -19.6350   48.1990 C   0  0  0  0  0
    7.5850  -19.8500   49.5590 C   0  0  0  0  0
    7.2700  -18.7850   50.3890 C   0  0  0  0  0
    7.1450  -17.4990   49.8620 C   0  0  0  0  0
    7.3500  -17.2810   48.4910 C   0  0  0  0  0
    7.6830  -18.3510   47.6670 C   0  0  0  0  0
    5.0430  -22.6230   46.6150 N   0  0  0  0  0
    4.2110  -23.7390   47.0560 C   0  0  0  0  0
    4.5090  -24.9670   46.2470 C   0  0  0  0  0
    4.4490  -24.9340   44.9740 O   0  0  0  0  0
    2.7990  -23.3250   46.7790 C   0  0  0  0  0
    1.9260  -22.8380   47.9230 C   0  0  0  0  0
    2.6810  -21.9600   48.9010 C   0  0  0  0  0
    0.7040  -22.1240   47.3360 C   0  0  0  0  0
    4.7950  -26.0650   46.9180 N   0  0  0  0  0
    4.8190  -27.3490   46.2460 C   0  0  0  0  0
    3.4510  -27.8680   45.8640 C   0  0  0  0  0
    2.6290  -28.0640   46.7380 O   0  0  0  0  0
    5.5040  -28.3750   47.0990 C   0  0  0  0  0
    6.9190  -27.9080   47.4700 C   0  0  0  0  0
    7.8460  -27.8870   46.2800 C   0  0  0  0  0
    7.4910  -28.7920   48.5750 C   0  0  0  0  0
    3.2100  -28.0920   44.5500 N   0  0  0  0  0
    1.9390  -28.6040   44.0520 C   0  0  0  0  0
    2.1960  -30.0820   43.6890 C   0  0  0  0  0
    1.4580  -27.8250   42.8400 C   0  0  0  0  0
    1.1500  -26.3530   43.1490 C   0  0  0  0  0
    0.2940  -26.1040   44.3930 C   0  0  0  0  0
    0.5110  -25.6870   41.9250 C   0  0  0  0  0
    0.9940  -30.6490   43.1730 O   0  0  0  0  0
    8.8548  -20.4427   46.4999 H   0  0  0  0  0
    8.6771  -21.5882   47.8425 H   0  0  0  0  0
    7.6693  -20.8644   49.9841 H   0  0  0  0  0
    7.1114  -18.9554   51.4676 H   0  0  0  0  0
    6.8857  -16.6538   50.5222 H   0  0  0  0  0
    7.2506  -16.2655   48.0713 H   0  0  0  0  0
    7.8495  -18.1753   46.5904 H   0  0  0  0  0
    4.8220  -22.1155   45.7492 H   0  0  0  0  0
    4.3391  -23.9618   48.1381 H   0  0  0  0  0
    2.2598  -24.1966   46.3353 H   0  0  0  0  0
    2.7837  -22.5623   45.9668 H   0  0  0  0  0
    1.5646  -23.7327   48.4892 H   0  0  0  0  0
    2.0023  -21.5476   49.6809 H   0  0  0  0  0
    3.1564  -21.0899   48.3954 H   0  0  0  0  0
    3.4806  -22.5063   49.4464 H   0  0  0  0  0
   -0.0108  -21.8200   48.1333 H   0  0  0  0  0
    0.1408  -22.7771   46.6319 H   0  0  0  0  0
    0.9849  -21.2006   46.7817 H   0  0  0  0  0
    4.9297  -26.0192   47.9364 H   0  0  0  0  0
    5.4105  -27.2560   45.3049 H   0  0  0  0  0
    5.5504  -29.3553   46.5706 H   0  0  0  0  0
    4.9131  -28.5421   48.0296 H   0  0  0  0  0
    6.8791  -26.8736   47.8874 H   0  0  0  0  0
    8.8851  -27.6190   46.5758 H   0  0  0  0  0
    7.5434  -27.1410   45.5133 H   0  0  0  0  0
    7.8997  -28.8771   45.7746 H   0  0  0  0  0
    8.5046  -28.4562   48.8899 H   0  0  0  0  0
    7.5820  -29.8531   48.2513 H   0  0  0  0  0
    6.8522  -28.7795   49.4866 H   0  0  0  0  0
    3.9476  -27.8744   43.8656 H   0  0  0  0  0
    1.1511  -28.5830   44.8389 H   0  0  0  0  0
    2.5188  -30.6490   44.5896 H   0  0  0  0  0
    3.0024  -30.1684   42.9288 H   0  0  0  0  0
    0.5297  -28.3008   42.4477 H   0  0  0  0  0
    2.2129  -27.8874   42.0222 H   0  0  0  0  0
    2.1288  -25.8397   43.3241 H   0  0  0  0  0
    0.0517  -25.0242   44.5122 H   0  0  0  0  0
    0.8067  -26.4110   45.3301 H   0  0  0  0  0
   -0.6729  -26.6527   44.3441 H   0  0  0  0  0
    0.3690  -24.5937   42.0786 H   0  0  0  0  0
   -0.4882  -26.1189   41.6929 H   0  0  0  0  0
    1.1417  -25.8048   41.0154 H   0  0  0  0  0
    1.1329  -31.5775   43.0422 H   0  0  0  0  0
  1  2  2  0  0  0
  1  3  1  0  0  0
  1 11  1  0  0  0
  3  4  1  0  0  0
  4  5  1  0  0  0
  4 35  1  0  0  0
  4 36  1  0  0  0
  5  6  2  0  0  0
  5 10  1  0  0  0
  6  7  1  0  0  0
  6 37  1  0  0  0
  7  8  2  0  0  0
  7 38  1  0  0  0
  8  9  1  0  0  0
  8 39  1  0  0  0
  9 10  2  0  0  0
  9 40  1  0  0  0
 10 41  1  0  0  0
 11 12  1  0  0  0
 11 42  1  0  0  0
 12 13  1  0  0  0
 12 15  1  0  0  0
 12 43  1  0  0  0
 13 14  2  0  0  0
 13 19  1  0  0  0
 15 16  1  0  0  0
 15 44  1  0  0  0
 15 45  1  0  0  0
 16 17  1  0  0  0
 16 18  1  0  0  0
 16 46  1  0  0  0
 17 47  1  0  0  0
 17 48  1  0  0  0
 17 49  1  0  0  0
 18 50  1  0  0  0
 18 51  1  0  0  0
 18 52  1  0  0  0
 19 20  1  0  0  0
 19 53  1  0  0  0
 20 21  1  0  0  0
 20 23  1  0  0  0
 20 54  1  0  0  0
 21 22  2  0  0  0
 21 27  1  0  0  0
 23 24  1  0  0  0
 23 55  1  0  0  0
 23 56  1  0  0  0
 24 25  1  0  0  0
 24 26  1  0  0  0
 24 57  1  0  0  0
 25 58  1  0  0  0
 25 59  1  0  0  0
 25 60  1  0  0  0
 26 61  1  0  0  0
 26 62  1  0  0  0
 26 63  1  0  0  0
 27 28  1  0  0  0
 27 64  1  0  0  0
 28 29  1  0  0  0
 28 30  1  0  0  0
 28 65  1  0  0  0
 29 34  1  0  0  0
 29 66  1  0  0  0
 29 67  1  0  0  0
 30 31  1  0  0  0
 30 68  1  0  0  0
 30 69  1  0  0  0
 31 32  1  0  0  0
 31 33  1  0  0  0
 31 70  1  0  0  0
 32 71  1  0  0  0
 32 72  1  0  0  0
 32 73  1  0  0  0
 33 74  1  0  0  0
 33 75  1  0  0  0
 33 76  1  0  0  0
 34 77  1  0  0  0
M  END
$$$$
