@<TRIPOS>MOLECULE
ALD_1_A_401
 77 77 0 0 0
SMALL
NO_CHARGES

@<TRIPOS>ATOM
      1 C9        -15.4000  -22.2900   -0.6600 C.2    401  ALD401      0.0000
      2 O31       -15.7510  -22.7780   -1.7200 O.2    401  ALD401      0.0000
      3 O8        -16.1890  -21.2580   -0.0640 O.3    401  ALD401      0.0000
      4 C7        -17.4080  -20.7850   -0.6720 C.3    401  ALD401      0.0000
      5 C3        -17.0520  -19.6350   -1.5840 C.ar   401  ALD401      0.0000
      6 C4        -16.8410  -19.8500   -2.9440 C.ar   401  ALD401      0.0000
      7 C5        -16.5260  -18.7850   -3.7740 C.ar   401  ALD401      0.0000
      8 C6        -16.4010  -17.4990   -3.2470 C.ar   401  ALD401      0.0000
      9 C1        -16.6060  -17.2810   -1.8760 C.ar   401  ALD401      0.0000
     10 C2        -16.9390  -18.3510   -1.0520 C.ar   401  ALD401      0.0000
     11 N10       -14.2990  -22.6230    0.0000 N.am   401  ALD401      0.0000
     12 C11       -13.4670  -23.7390   -0.4410 C.3    401  ALD401      0.0000
     13 C12       -13.7650  -24.9670    0.3680 C.2    401  ALD401      0.0000
     14 O32       -13.7050  -24.9340    1.6410 O.2    401  ALD401      0.0000
     15 C30       -12.0550  -23.3250   -0.1640 C.3    401  ALD401      0.0000
     16 C31       -11.1820  -22.8380   -1.3080 C.3    401  ALD401      0.0000
     17 C32       -11.9370  -21.9600   -2.2860 C.3    401  ALD401      0.0000
     18 C33        -9.9600  -22.1240   -0.7210 C.3    401  ALD401      0.0000
     19 N13       -14.0510  -26.0650   -0.3030 N.am   401  ALD401      0.0000
     20 C14       -14.0750  -27.3490    0.3690 C.3    401  ALD401      0.0000
     21 C15       -12.7070  -27.8680    0.7510 C.2    401  ALD401      0.0000
     22 O34       -11.8850  -28.0640   -0.1230 O.2    401  ALD401      0.0000
     23 C24       -14.7600  -28.3750   -0.4840 C.3    401  ALD401      0.0000
     24 C25       -16.1750  -27.9080   -0.8550 C.3    401  ALD401      0.0000
     25 C26       -17.1020  -27.8870    0.3350 C.3    401  ALD401      0.0000
     26 C27       -16.7470  -28.7920   -1.9600 C.3    401  ALD401      0.0000
     27 N16       -12.4660  -28.0920    2.0650 N.am   401  ALD401      0.0000
     28 C17       -11.1950  -28.6040    2.5630 C.3    401  ALD401      0.0000
     29 C22       -11.4520  -30.0820    2.9260 C.3    401  ALD401      0.0000
     30 C18       -10.7140  -27.8250    3.7750 C.3    401  ALD401      0.0000
     31 C19       -10.4060  -26.3530    3.4660 C.3    401  ALD401      0.0000
     32 C20        -9.5500  -26.1040    2.2220 C.3    401  ALD401      0.0000
     33 C21        -9.7670  -25.6870    4.6900 C.3    401  ALD401      0.0000
     34 O33       -10.2500  -30.6490    3.4420 O.3    401  ALD401      0.0000
     35 H         -18.1109  -20.4428    0.1151 H      401  ALD401      0.0000
     36 H         -17.9330  -21.5882   -1.2276 H      401  ALD401      0.0000
     37 H         -16.9253  -20.8644   -3.3691 H      401  ALD401      0.0000
     38 H         -16.3674  -18.9554   -4.8526 H      401  ALD401      0.0000
     39 H         -16.1417  -16.6538   -3.9072 H      401  ALD401      0.0000
     40 H         -16.5066  -16.2655   -1.4563 H      401  ALD401      0.0000
     41 H         -17.1055  -18.1753    0.0246 H      401  ALD401      0.0000
     42 H         -14.0781  -22.1155    0.8658 H      401  ALD401      0.0000
     43 H         -13.5951  -23.9618   -1.5231 H      401  ALD401      0.0000
     44 H         -11.5158  -24.1965    0.2799 H      401  ALD401      0.0000
     45 H         -12.0398  -22.5622    0.6481 H      401  ALD401      0.0000
     46 H         -10.8206  -23.7327   -1.8742 H      401  ALD401      0.0000
     47 H         -11.2581  -21.5465   -3.0651 H      401  ALD401      0.0000
     48 H         -12.4136  -21.0907   -1.7802 H      401  ALD401      0.0000
     49 H         -12.7357  -22.5067   -2.8324 H      401  ALD401      0.0000
     50 H          -9.2456  -21.8193   -1.5184 H      401  ALD401      0.0000
     51 H          -9.3964  -22.7773   -0.0175 H      401  ALD401      0.0000
     52 H         -10.2410  -21.2010   -0.1660 H      401  ALD401      0.0000
     53 H         -14.1857  -26.0192   -1.3214 H      401  ALD401      0.0000
     54 H         -14.6665  -27.2560    1.3101 H      401  ALD401      0.0000
     55 H         -14.8064  -29.3553    0.0444 H      401  ALD401      0.0000
     56 H         -14.1691  -28.5421   -1.4146 H      401  ALD401      0.0000
     57 H         -16.1351  -26.8736   -1.2724 H      401  ALD401      0.0000
     58 H         -18.1412  -27.6194    0.0392 H      401  ALD401      0.0000
     59 H         -16.7996  -27.1407    1.1015 H      401  ALD401      0.0000
     60 H         -17.1553  -28.8770    0.8407 H      401  ALD401      0.0000
     61 H         -17.7607  -28.4564   -2.2747 H      401  ALD401      0.0000
     62 H         -16.8378  -29.8531   -1.6364 H      401  ALD401      0.0000
     63 H         -16.1083  -28.7793   -2.8716 H      401  ALD401      0.0000
     64 H         -13.2036  -27.8743    2.7494 H      401  ALD401      0.0000
     65 H         -10.4071  -28.5829    1.7761 H      401  ALD401      0.0000
     66 H         -11.7748  -30.6490    2.0254 H      401  ALD401      0.0000
     67 H         -12.2584  -30.1683    3.6862 H      401  ALD401      0.0000
     68 H          -9.7857  -28.3009    4.1673 H      401  ALD401      0.0000
     69 H         -11.4690  -27.8874    4.5927 H      401  ALD401      0.0000
     70 H         -11.3848  -25.8397    3.2909 H      401  ALD401      0.0000
     71 H          -9.3060  -25.0245    2.1038 H      401  ALD401      0.0000
     72 H         -10.0635  -26.4093    1.2848 H      401  ALD401      0.0000
     73 H          -8.5839  -26.6543    2.2700 H      401  ALD401      0.0000
     74 H          -9.6244  -24.5938    4.5362 H      401  ALD401      0.0000
     75 H          -8.7681  -26.1194    4.9225 H      401  ALD401      0.0000
     76 H         -10.3980  -25.8043    5.5995 H      401  ALD401      0.0000
     77 H         -10.3900  -31.5768    3.5761 H      401  ALD401      0.0000
@<TRIPOS>BOND
     1     1     2    2
     2     1     3    1
     3     1    11    1
     4     3     4    1
     5     4     5    1
     6     4    35    1
     7     4    36    1
     8     5     6   ar
     9     5    10   ar
    10     6     7   ar
    11     6    37    1
    12     7     8   ar
    13     7    38    1
    14     8     9   ar
    15     8    39    1
    16     9    10   ar
    17     9    40    1
    18    10    41    1
    19    11    12    1
    20    11    42    1
    21    12    13    1
    22    12    15    1
    23    12    43    1
    24    13    14    2
    25    13    19    1
    26    15    16    1
    27    15    44    1
    28    15    45    1
    29    16    17    1
    30    16    18    1
    31    16    46    1
    32    17    47    1
    33    17    48    1
    34    17    49    1
    35    18    50    1
    36    18    51    1
    37    18    52    1
    38    19    20    1
    39    19    53    1
    40    20    21    1
    41    20    23    1
    42    20    54    1
    43    21    22    2
    44    21    27    1
    45    23    24    1
    46    23    55    1
    47    23    56    1
    48    24    25    1
    49    24    26    1
    50    24    57    1
    51    25    58    1
    52    25    59    1
    53    25    60    1
    54    26    61    1
    55    26    62    1
    56    26    63    1
    57    27    28    1
    58    27    64    1
    59    28    29    1
    60    28    30    1
    61    28    65    1
    62    29    34    1
    63    29    66    1
    64    29    67    1
    65    30    31    1
    66    30    68    1
    67    30    69    1
    68    31    32    1
    69    31    33    1
    70    31    70    1
    71    32    71    1
    72    32    72    1
    73    32    73    1
    74    33    74    1
    75    33    75    1
    76    33    76    1
    77    34    77    1

