@<TRIPOS>MOLECULE
EDO_1_A_404
 10 9 0 0 0
SMALL
NO_CHARGES

@<TRIPOS>ATOM
      1 C1        -21.4880  -30.4320   24.3660 C.3    404  EDO404      0.0000
      2 O1        -21.3180  -31.8560   24.4590 O.3    404  EDO404      0.0000
      3 C2        -21.0190  -29.7880   25.6860 C.3    404  EDO404      0.0000
      4 O2        -21.7300  -28.5590   25.8780 O.3    404  EDO404      0.0000
      5 H         -22.5623  -30.2102   24.1905 H      404  EDO404      0.0000
      6 H         -20.9133  -30.0316   23.5050 H      404  EDO404      0.0000
      7 H         -21.6806  -32.2498   23.6764 H      404  EDO404      0.0000
      8 H         -19.9225  -29.6161   25.6875 H      404  EDO404      0.0000
      9 H         -21.2509  -30.4557   26.5416 H      404  EDO404      0.0000
     10 H         -21.2755  -27.8735   25.4062 H      404  EDO404      0.0000
@<TRIPOS>BOND
     1     1     2    1
     2     1     3    1
     3     1     5    1
     4     1     6    1
     5     2     7    1
     6     3     4    1
     7     3     8    1
     8     3     9    1
     9     4    10    1

