EDO_2_A_403
  -ISIS-            3D

 10  9  0  0  0  0  0  0  0  0  1 V2000
   17.8920  -21.1320   48.6000 C   0  0  0  0  0
   18.9460  -22.1050   48.7060 O   0  0  0  0  0
   17.9590  -20.4780   47.2170 C   0  0  0  0  0
   16.8670  -19.5540   47.0760 O   0  0  0  0  0
   18.0245  -20.3697   49.3953 H   0  0  0  0  0
   16.9070  -21.6176   48.7645 H   0  0  0  0  0
   18.6176  -22.9369   48.3914 H   0  0  0  0  0
   17.8922  -21.2484   46.4200 H   0  0  0  0  0
   18.9226  -19.9408   47.0901 H   0  0  0  0  0
   16.9587  -19.1125   46.2418 H   0  0  0  0  0
  1  2  1  0  0  0
  1  3  1  0  0  0
  1  5  1  0  0  0
  1  6  1  0  0  0
  2  7  1  0  0  0
  3  4  1  0  0  0
  3  8  1  0  0  0
  3  9  1  0  0  0
  4 10  1  0  0  0
M  END
$$$$
