EDO_2_A_404
  -ISIS-            3D

 10  9  0  0  0  0  0  0  0  0  1 V2000
   12.2320  -30.4320   22.2490 C   0  0  0  0  0
   12.0620  -31.8560   22.1560 O   0  0  0  0  0
   11.7630  -29.7880   20.9290 C   0  0  0  0  0
   12.4740  -28.5590   20.7370 O   0  0  0  0  0
   13.3059  -30.2134   22.4290 H   0  0  0  0  0
   11.6562  -30.0293   23.1084 H   0  0  0  0  0
   12.3033  -32.2376   22.9897 H   0  0  0  0  0
   10.6728  -29.5859   20.9574 H   0  0  0  0  0
   11.9524  -30.4631   20.0676 H   0  0  0  0  0
   13.2925  -28.7526   20.2991 H   0  0  0  0  0
  1  2  1  0  0  0
  1  3  1  0  0  0
  1  5  1  0  0  0
  1  6  1  0  0  0
  2  7  1  0  0  0
  3  4  1  0  0  0
  3  8  1  0  0  0
  3  9  1  0  0  0
  4 10  1  0  0  0
M  END
$$$$
