@<TRIPOS>MOLECULE
EDO_1_A_403
 10 9 0 0 0
SMALL
NO_CHARGES

@<TRIPOS>ATOM
      1 C1        -27.1480  -21.1320   -1.9850 C.3    403  EDO403      0.0000
      2 O1        -28.2020  -22.1050   -2.0910 O.3    403  EDO403      0.0000
      3 C2        -27.2150  -20.4780   -0.6020 C.3    403  EDO403      0.0000
      4 O2        -26.1230  -19.5540   -0.4610 O.3    403  EDO403      0.0000
      5 H         -27.2410  -20.3746   -2.7916 H      403  EDO403      0.0000
      6 H         -26.1741  -21.6461   -2.1214 H      403  EDO403      0.0000
      7 H         -28.9833  -21.6665   -2.4009 H      403  EDO403      0.0000
      8 H         -27.1505  -21.2514    0.1926 H      403  EDO403      0.0000
      9 H         -28.1765  -19.9378   -0.4730 H      403  EDO403      0.0000
     10 H         -26.1379  -19.2106    0.4228 H      403  EDO403      0.0000
@<TRIPOS>BOND
     1     1     2    1
     2     1     3    1
     3     1     5    1
     4     1     6    1
     5     2     7    1
     6     3     4    1
     7     3     8    1
     8     3     9    1
     9     4    10    1

