EDO_1_A_402
  -ISIS-            3D

 10  9  0  0  0  0  0  0  0  0  1 V2000
  -22.1810    4.3640   34.3450 C   0  0  0  0  0
  -21.2180    4.3870   35.4050 O   0  0  0  0  0
  -23.5730    4.0450   34.8910 C   0  0  0  0  0
  -24.2500    5.2670   35.2180 O   0  0  0  0  0
  -21.8740    3.5763   33.6255 H   0  0  0  0  0
  -22.1687    5.3254   33.7906 H   0  0  0  0  0
  -21.4306    5.1270   35.9593 H   0  0  0  0  0
  -23.5153    3.3850   35.7815 H   0  0  0  0  0
  -24.1636    3.5074   34.1186 H   0  0  0  0  0
  -25.1128    5.0494   35.5450 H   0  0  0  0  0
  1  2  1  0  0  0
  1  3  1  0  0  0
  1  5  1  0  0  0
  1  6  1  0  0  0
  2  7  1  0  0  0
  3  4  1  0  0  0
  3  8  1  0  0  0
  3  9  1  0  0  0
  4 10  1  0  0  0
M  END
$$$$
