@<TRIPOS>MOLECULE
EDO_2_A_404
 10 9 0 0 0
SMALL
NO_CHARGES

@<TRIPOS>ATOM
      1 C1         12.2320  -30.4320   22.2490 C.3    404  EDO404      0.0000
      2 O1         12.0620  -31.8560   22.1560 O.3    404  EDO404      0.0000
      3 C2         11.7630  -29.7880   20.9290 C.3    404  EDO404      0.0000
      4 O2         12.4740  -28.5590   20.7370 O.3    404  EDO404      0.0000
      5 H          13.3059  -30.2134   22.4290 H      404  EDO404      0.0000
      6 H          11.6562  -30.0293   23.1084 H      404  EDO404      0.0000
      7 H          12.3033  -32.2376   22.9897 H      404  EDO404      0.0000
      8 H          10.6728  -29.5859   20.9574 H      404  EDO404      0.0000
      9 H          11.9524  -30.4631   20.0676 H      404  EDO404      0.0000
     10 H          13.2925  -28.7526   20.2991 H      404  EDO404      0.0000
@<TRIPOS>BOND
     1     1     2    1
     2     1     3    1
     3     1     5    1
     4     1     6    1
     5     2     7    1
     6     3     4    1
     7     3     8    1
     8     3     9    1
     9     4    10    1

