@<TRIPOS>MOLECULE
EDO_2_A_402
 10 9 0 0 0
SMALL
NO_CHARGES

@<TRIPOS>ATOM
      1 C1         12.9250    4.3640   12.2700 C.3    402  EDO402      0.0000
      2 O1         11.9620    4.3870   11.2100 O.3    402  EDO402      0.0000
      3 C2         14.3170    4.0450   11.7240 C.3    402  EDO402      0.0000
      4 O2         14.9940    5.2670   11.3970 O.3    402  EDO402      0.0000
      5 H          12.6180    3.5764   12.9896 H      402  EDO402      0.0000
      6 H          12.9128    5.3255   12.8243 H      402  EDO402      0.0000
      7 H          12.1751    5.1265   10.6552 H      402  EDO402      0.0000
      8 H          14.2594    3.3849   10.8335 H      402  EDO402      0.0000
      9 H          14.9076    3.5076   12.4965 H      402  EDO402      0.0000
     10 H          15.8571    5.0495   11.0706 H      402  EDO402      0.0000
@<TRIPOS>BOND
     1     1     2    1
     2     1     3    1
     3     1     5    1
     4     1     6    1
     5     2     7    1
     6     3     4    1
     7     3     8    1
     8     3     9    1
     9     4    10    1

