@<TRIPOS>MOLECULE
EDO_2_A_403
 10 9 0 0 0
SMALL
NO_CHARGES

@<TRIPOS>ATOM
      1 C1         17.8920  -21.1320   48.6000 C.3    403  EDO403      0.0000
      2 O1         18.9460  -22.1050   48.7060 O.3    403  EDO403      0.0000
      3 C2         17.9590  -20.4780   47.2170 C.3    403  EDO403      0.0000
      4 O2         16.8670  -19.5540   47.0760 O.3    403  EDO403      0.0000
      5 H          18.0245  -20.3697   49.3953 H      403  EDO403      0.0000
      6 H          16.9070  -21.6176   48.7645 H      403  EDO403      0.0000
      7 H          18.6176  -22.9369   48.3914 H      403  EDO403      0.0000
      8 H          17.8922  -21.2484   46.4200 H      403  EDO403      0.0000
      9 H          18.9226  -19.9408   47.0901 H      403  EDO403      0.0000
     10 H          16.9587  -19.1125   46.2418 H      403  EDO403      0.0000
@<TRIPOS>BOND
     1     1     2    1
     2     1     3    1
     3     1     5    1
     4     1     6    1
     5     2     7    1
     6     3     4    1
     7     3     8    1
     8     3     9    1
     9     4    10    1

