@<TRIPOS>MOLECULE
EDO_2_A_407
 10 9 0 0 0
SMALL
NO_CHARGES

@<TRIPOS>ATOM
      1 C1          2.1700   -4.2600   22.8710 C.3    407  EDO407      0.0000
      2 O1          1.5800   -3.4950   21.8040 O.3    407  EDO407      0.0000
      3 C2          2.6130   -5.5940   22.2570 C.3    407  EDO407      0.0000
      4 O2          2.6130   -6.6410   23.2060 O.3    407  EDO407      0.0000
      5 H           1.4110   -4.4269   23.6642 H      407  EDO407      0.0000
      6 H           3.0274   -3.7143   23.3163 H      407  EDO407      0.0000
      7 H           1.2312   -2.6940   22.1722 H      407  EDO407      0.0000
      8 H           3.6150   -5.4985   21.7881 H      407  EDO407      0.0000
      9 H           1.9124   -5.8830   21.4454 H      407  EDO407      0.0000
     10 H           3.3869   -6.5572   23.7475 H      407  EDO407      0.0000
@<TRIPOS>BOND
     1     1     2    1
     2     1     3    1
     3     1     5    1
     4     1     6    1
     5     2     7    1
     6     3     4    1
     7     3     8    1
     8     3     9    1
     9     4    10    1

