EDO_1_A_407
  -ISIS-            3D

 10  9  0  0  0  0  0  0  0  0  1 V2000
  -11.4260   -4.2600   23.7440 C   0  0  0  0  0
  -10.8360   -3.4950   24.8110 O   0  0  0  0  0
  -11.8690   -5.5940   24.3580 C   0  0  0  0  0
  -11.8690   -6.6410   23.4090 O   0  0  0  0  0
  -10.6669   -4.4270   22.9509 H   0  0  0  0  0
  -12.2833   -3.7143   23.2986 H   0  0  0  0  0
  -10.4880   -2.6936   24.4430 H   0  0  0  0  0
  -12.8711   -5.4985   24.8267 H   0  0  0  0  0
  -11.1685   -5.8830   25.1697 H   0  0  0  0  0
  -12.6418   -6.5560   22.8661 H   0  0  0  0  0
  1  2  1  0  0  0
  1  3  1  0  0  0
  1  5  1  0  0  0
  1  6  1  0  0  0
  2  7  1  0  0  0
  3  4  1  0  0  0
  3  8  1  0  0  0
  3  9  1  0  0  0
  4 10  1  0  0  0
M  END
$$$$
