IPA_2_A_405
  -ISIS-            3D

 12 11  0  0  0  0  0  0  0  0  1 V2000
   -9.0950  -31.7110   41.5140 C   0  0  0  0  0
   -7.8270  -31.6080   42.3680 C   0  0  0  0  0
   -7.4540  -30.1560   42.6970 C   0  0  0  0  0
   -8.0140  -32.2770   43.6050 O   0  0  0  0  0
   -9.3489  -32.7684   41.2814 H   0  0  0  0  0
   -8.9765  -31.1830   40.5427 H   0  0  0  0  0
   -9.9743  -31.2652   42.0282 H   0  0  0  0  0
   -6.9785  -32.0744   41.8159 H   0  0  0  0  0
   -6.5259  -30.1003   43.3074 H   0  0  0  0  0
   -8.2581  -29.6435   43.2692 H   0  0  0  0  0
   -7.2746  -29.5620   41.7743 H   0  0  0  0  0
   -8.0409  -33.2104   43.4412 H   0  0  0  0  0
  1  2  1  0  0  0
  1  5  1  0  0  0
  1  6  1  0  0  0
  1  7  1  0  0  0
  2  3  1  0  0  0
  2  4  1  0  0  0
  2  8  1  0  0  0
  3  9  1  0  0  0
  3 10  1  0  0  0
  3 11  1  0  0  0
  4 12  1  0  0  0
M  END
$$$$
