IPA_1_A_408
  -ISIS-            3D

 12 11  0  0  0  0  0  0  0  0  1 V2000
   -0.7530  -16.5540   32.7050 C   0  0  0  0  0
   -2.2810  -16.5870   32.6010 C   0  0  0  0  0
   -2.7750  -15.1930   32.1950 C   0  0  0  0  0
   -2.8720  -16.9630   33.8440 O   0  0  0  0  0
   -0.3406  -17.5511   32.9739 H   0  0  0  0  0
   -0.4069  -15.8363   33.4806 H   0  0  0  0  0
   -0.2804  -16.2576   31.7431 H   0  0  0  0  0
   -2.5798  -17.3154   31.8122 H   0  0  0  0  0
   -3.8822  -15.1692   32.0930 H   0  0  0  0  0
   -2.3516  -14.8734   31.2177 H   0  0  0  0  0
   -2.4982  -14.4212   32.9462 H   0  0  0  0  0
   -2.6876  -17.8803   33.9967 H   0  0  0  0  0
  1  2  1  0  0  0
  1  5  1  0  0  0
  1  6  1  0  0  0
  1  7  1  0  0  0
  2  3  1  0  0  0
  2  4  1  0  0  0
  2  8  1  0  0  0
  3  9  1  0  0  0
  3 10  1  0  0  0
  3 11  1  0  0  0
  4 12  1  0  0  0
M  END
$$$$
