@<TRIPOS>MOLECULE
IPA_1_A_405
 12 11 0 0 0
SMALL
NO_CHARGES

@<TRIPOS>ATOM
      1 C1         -0.1610  -31.7110    5.1010 C.3    405  IPA405      0.0000
      2 C2         -1.4290  -31.6080    4.2470 C.3    405  IPA405      0.0000
      3 C3         -1.8020  -30.1560    3.9180 C.3    405  IPA405      0.0000
      4 O2         -1.2420  -32.2770    3.0100 O.3    405  IPA405      0.0000
      5 H           0.1078  -32.7707    5.3049 H      405  IPA405      0.0000
      6 H          -0.2923  -31.2116    6.0858 H      405  IPA405      0.0000
      7 H           0.7148  -31.2365    4.6069 H      405  IPA405      0.0000
      8 H          -2.2741  -32.0871    4.7905 H      405  IPA405      0.0000
      9 H          -2.7198  -30.1007    3.2922 H      405  IPA405      0.0000
     10 H          -0.9922  -29.6306    3.3660 H      405  IPA405      0.0000
     11 H          -2.0019  -29.5695    4.8413 H      405  IPA405      0.0000
     12 H          -0.4872  -31.9083    2.5712 H      405  IPA405      0.0000
@<TRIPOS>BOND
     1     1     2    1
     2     1     5    1
     3     1     6    1
     4     1     7    1
     5     2     3    1
     6     2     4    1
     7     2     8    1
     8     3     9    1
     9     3    10    1
    10     3    11    1
    11     4    12    1

