@<TRIPOS>MOLECULE
DMS_2_A_402
 10 9 0 0 0
SMALL
NO_CHARGES

@<TRIPOS>ATOM
      1 S          -6.1500   -1.0890    6.2100 S.o    402  DMS402      0.0000
      2 O          -7.0650   -0.9300    7.3700 O.2    402  DMS402      0.0000
      3 C1         -7.1830   -1.0080    4.7510 C.3    402  DMS402      0.0000
      4 C2         -5.7660   -2.8150    6.1030 C.3    402  DMS402      0.0000
      5 H          -6.5850   -1.2630    3.8523 H      402  DMS402      0.0000
      6 H          -7.5766    0.0229    4.6389 H      402  DMS402      0.0000
      7 H          -8.0354   -1.7124    4.8417 H      402  DMS402      0.0000
      8 H          -5.2058   -3.0197    5.1678 H      402  DMS402      0.0000
      9 H          -6.6953   -3.4209    6.1174 H      402  DMS402      0.0000
     10 H          -5.1346   -3.1044    6.9677 H      402  DMS402      0.0000
@<TRIPOS>BOND
     1     1     2    2
     2     1     3    1
     3     1     4    1
     4     3     5    1
     5     3     6    1
     6     3     7    1
     7     4     8    1
     8     4     9    1
     9     4    10    1

