DMS_1_A_403
  -ISIS-            3D

 10  9  0  0  0  0  0  0  0  0  1 V2000
    2.3910  -18.8730    8.1000 S   0  0  0  0  0
    3.6430  -18.6780    8.9420 O   0  0  0  0  0
    1.0680  -18.1340    9.0440 C   0  0  0  0  0
    1.9220  -20.5640    8.3790 C   0  0  0  0  0
    0.0910  -18.3853    8.5830 H   0  0  0  0  0
    1.1909  -17.0316    9.0438 H   0  0  0  0  0
    1.0885  -18.4990   10.0915 H   0  0  0  0  0
    0.9222  -20.7553    7.9385 H   0  0  0  0  0
    1.8959  -20.7859    9.4658 H   0  0  0  0  0
    2.6603  -21.2337    7.8925 H   0  0  0  0  0
  1  2  2  0  0  0
  1  3  1  0  0  0
  1  4  1  0  0  0
  3  5  1  0  0  0
  3  6  1  0  0  0
  3  7  1  0  0  0
  4  8  1  0  0  0
  4  9  1  0  0  0
  4 10  1  0  0  0
M  END
$$$$
