DMS_1_A_402
  -ISIS-            3D

 10  9  0  0  0  0  0  0  0  0  1 V2000
    6.1500   -1.0890   -6.2100 S   0  0  0  0  0
    7.0650   -0.9300   -7.3700 O   0  0  0  0  0
    7.1830   -1.0080   -4.7510 C   0  0  0  0  0
    5.7660   -2.8150   -6.1030 C   0  0  0  0  0
    6.5850   -1.2630   -3.8523 H   0  0  0  0  0
    7.5766    0.0229   -4.6389 H   0  0  0  0  0
    8.0354   -1.7124   -4.8417 H   0  0  0  0  0
    5.2058   -3.0197   -5.1678 H   0  0  0  0  0
    6.6953   -3.4209   -6.1174 H   0  0  0  0  0
    5.1346   -3.1044   -6.9677 H   0  0  0  0  0
  1  2  2  0  0  0
  1  3  1  0  0  0
  1  4  1  0  0  0
  3  5  1  0  0  0
  3  6  1  0  0  0
  3  7  1  0  0  0
  4  8  1  0  0  0
  4  9  1  0  0  0
  4 10  1  0  0  0
M  END
$$$$
