@<TRIPOS>MOLECULE
DMS_2_A_401
 10 9 0 0 0
SMALL
NO_CHARGES

@<TRIPOS>ATOM
      1 S          -6.8530  -27.8970  -21.6320 S.o    401  DMS401      0.0000
      2 O          -7.6180  -26.9440  -22.5330 O.2    401  DMS401      0.0000
      3 C1         -5.5280  -28.5030  -22.6620 C.3    401  DMS401      0.0000
      4 C2         -5.8730  -26.9070  -20.5590 C.3    401  DMS401      0.0000
      5 H          -4.8203  -29.1005  -22.0516 H      401  DMS401      0.0000
      6 H          -4.9869  -27.6577  -23.1346 H      401  DMS401      0.0000
      7 H          -5.9501  -29.1514  -23.4569 H      401  DMS401      0.0000
      8 H          -5.1654  -27.5478  -19.9942 H      401  DMS401      0.0000
      9 H          -6.5333  -26.3840  -19.8373 H      401  DMS401      0.0000
     10 H          -5.3042  -26.1508  -21.1380 H      401  DMS401      0.0000
@<TRIPOS>BOND
     1     1     2    2
     2     1     3    1
     3     1     4    1
     4     3     5    1
     5     3     6    1
     6     3     7    1
     7     4     8    1
     8     4     9    1
     9     4    10    1

