@<TRIPOS>MOLECULE
NMI_1_A_201
 27 28 0 0 0
SMALL
NO_CHARGES

@<TRIPOS>ATOM
      1 CAA       -43.6740  -25.5130   -0.4290 C.3    201  NMI201      0.0000
      2 NAN       -44.4090  -26.6630   -0.0190 N.ar   201  NMI201      0.0000
      3 CAH       -43.7280  -27.4630    0.7040 C.ar   201  NMI201      0.0000
      4 CAM       -45.6600  -27.1440   -0.1860 C.ar   201  NMI201      0.0000
      5 CAG       -46.7820  -26.7000   -0.9400 C.ar   201  NMI201      0.0000
      6 CAE       -48.0150  -27.3890   -0.8770 C.ar   201  NMI201      0.0000
      7 CAD       -48.0820  -28.6100   -0.1280 C.ar   201  NMI201      0.0000
      8 CAF       -46.9340  -29.0450    0.5110 C.ar   201  NMI201      0.0000
      9 CAL       -45.7380  -28.3320    0.5110 C.ar   201  NMI201      0.0000
     10 CAK       -44.4850  -28.5070    1.1050 C.ar   201  NMI201      0.0000
     11 CAJ       -43.9510  -29.5780    2.0640 C.3    201  NMI201      0.0000
     12 CAI       -43.8530  -30.9730    1.5530 C.3    201  NMI201      0.0000
     13 CAC       -43.6400  -31.8610    2.7460 C.2    201  NMI201      0.0000
     14 OAB       -44.0380  -32.9920    2.5680 O.co2  201  NMI201     -0.5000
     15 O1        -43.0460  -31.5210    3.7580 O.co2  201  NMI201     -0.5000
     16 H         -44.3073  -24.8460   -1.0543 H      201  NMI201      0.0000
     17 H         -42.7841  -25.7701   -1.0461 H      201  NMI201      0.0000
     18 H         -43.3245  -24.8985    0.4307 H      201  NMI201      0.0000
     19 H         -42.6777  -27.2564    0.9569 H      201  NMI201      0.0000
     20 H         -46.6968  -25.7859   -1.5503 H      201  NMI201      0.0000
     21 H         -48.9022  -27.0091   -1.4103 H      201  NMI201      0.0000
     22 H         -49.0214  -29.1850   -0.0743 H      201  NMI201      0.0000
     23 H         -46.9764  -29.9957    1.0692 H      201  NMI201      0.0000
     24 H         -44.6328  -29.5562    2.9472 H      201  NMI201      0.0000
     25 H         -42.9555  -29.2481    2.4423 H      201  NMI201      0.0000
     26 H         -43.0147  -31.0719    0.8268 H      201  NMI201      0.0000
     27 H         -44.7888  -31.2568    1.0198 H      201  NMI201      0.0000
@<TRIPOS>BOND
     1     1     2    1
     2     1    16    1
     3     1    17    1
     4     1    18    1
     5     2     3   ar
     6     2     4   ar
     7     3    10   ar
     8     3    19    1
     9     4     5   ar
    10     4     9   ar
    11     5     6   ar
    12     5    20    1
    13     6     7   ar
    14     6    21    1
    15     7     8   ar
    16     7    22    1
    17     8     9   ar
    18     8    23    1
    19     9    10   ar
    20    10    11    1
    21    11    12    1
    22    11    24    1
    23    11    25    1
    24    12    13    1
    25    12    26    1
    26    12    27    1
    27    13    14   ar
    28    13    15   ar

