@<TRIPOS>MOLECULE
DMS_1_A_402
 10 9 0 0 0
SMALL
NO_CHARGES

@<TRIPOS>ATOM
      1 S           5.8940   -1.1170   -6.3010 S.o    402  DMS402      0.0000
      2 O           6.6300   -0.8600   -7.5790 O.2    402  DMS402      0.0000
      3 C1          7.1080   -1.0100   -5.0110 C.3    402  DMS402      0.0000
      4 C2          5.6220   -2.8690   -6.2220 C.3    402  DMS402      0.0000
      5 H           6.6625   -1.3302   -4.0469 H      402  DMS402      0.0000
      6 H           7.4499    0.0408   -4.9153 H      402  DMS402      0.0000
      7 H           7.9809   -1.6532   -5.2464 H      402  DMS402      0.0000
      8 H           5.2110   -3.1420   -5.2286 H      402  DMS402      0.0000
      9 H           6.5720   -3.4162   -6.3922 H      402  DMS402      0.0000
     10 H           4.8921   -3.1623   -7.0038 H      402  DMS402      0.0000
@<TRIPOS>BOND
     1     1     2    2
     2     1     3    1
     3     1     4    1
     4     3     5    1
     5     3     6    1
     6     3     7    1
     7     4     8    1
     8     4     9    1
     9     4    10    1

