@<TRIPOS>MOLECULE
DMS_1_A_403
 10 9 0 0 0
SMALL
NO_CHARGES

@<TRIPOS>ATOM
      1 S           2.3640  -19.1820    8.1890 S.o    403  DMS403      0.0000
      2 O           3.6350  -18.7860    8.8920 O.2    403  DMS403      0.0000
      3 C1          1.0610  -18.2770    8.9860 C.3    403  DMS403      0.0000
      4 C2          1.9530  -20.8170    8.7810 C.3    403  DMS403      0.0000
      5 H           0.0773  -18.6249    8.6093 H      403  DMS403      0.0000
      6 H           1.1710  -17.1972    8.7573 H      403  DMS403      0.0000
      7 H           1.1076  -18.4207   10.0848 H      403  DMS403      0.0000
      8 H           0.9504  -21.1098    8.4071 H      403  DMS403      0.0000
      9 H           1.9549  -20.8362    9.8899 H      403  DMS403      0.0000
     10 H           2.7033  -21.5419    8.4043 H      403  DMS403      0.0000
@<TRIPOS>BOND
     1     1     2    2
     2     1     3    1
     3     1     4    1
     4     3     5    1
     5     3     6    1
     6     3     7    1
     7     4     8    1
     8     4     9    1
     9     4    10    1

