DMS_2_A_402
  -ISIS-            3D

 10  9  0  0  0  0  0  0  0  0  1 V2000
   -5.8940   -1.1170    6.3010 S   0  0  0  0  0
   -6.6300   -0.8600    7.5790 O   0  0  0  0  0
   -7.1080   -1.0100    5.0110 C   0  0  0  0  0
   -5.6220   -2.8690    6.2220 C   0  0  0  0  0
   -6.6625   -1.3302    4.0469 H   0  0  0  0  0
   -7.4499    0.0408    4.9153 H   0  0  0  0  0
   -7.9809   -1.6532    5.2464 H   0  0  0  0  0
   -5.2110   -3.1420    5.2286 H   0  0  0  0  0
   -6.5720   -3.4162    6.3922 H   0  0  0  0  0
   -4.8921   -3.1623    7.0038 H   0  0  0  0  0
  1  2  2  0  0  0
  1  3  1  0  0  0
  1  4  1  0  0  0
  3  5  1  0  0  0
  3  6  1  0  0  0
  3  7  1  0  0  0
  4  8  1  0  0  0
  4  9  1  0  0  0
  4 10  1  0  0  0
M  END
$$$$
