@<TRIPOS>MOLECULE
DMS_2_A_401
 10 9 0 0 0
SMALL
NO_CHARGES

@<TRIPOS>ATOM
      1 S          -7.2860  -28.0180  -21.6110 S.o    401  DMS401      0.0000
      2 O          -8.1480  -26.9680  -22.2340 O.2    401  DMS401      0.0000
      3 C1         -5.9310  -28.3340  -22.7110 C.3    401  DMS401      0.0000
      4 C2         -6.3700  -27.2150  -20.3230 C.3    401  DMS401      0.0000
      5 H          -5.2003  -29.0118  -22.2241 H      401  DMS401      0.0000
      6 H          -5.4282  -27.3846  -22.9874 H      401  DMS401      0.0000
      7 H          -6.3126  -28.8212  -23.6316 H      401  DMS401      0.0000
      8 H          -5.6236  -27.9167  -19.8975 H      401  DMS401      0.0000
      9 H          -7.0662  -26.9025  -19.5179 H      401  DMS401      0.0000
     10 H          -5.8507  -26.3183  -20.7189 H      401  DMS401      0.0000
@<TRIPOS>BOND
     1     1     2    2
     2     1     3    1
     3     1     4    1
     4     3     5    1
     5     3     6    1
     6     3     7    1
     7     4     8    1
     8     4     9    1
     9     4    10    1

