@<TRIPOS>MOLECULE
DMS_1_B_503
 10 9 0 0 0
SMALL
NO_CHARGES

@<TRIPOS>ATOM
      1 S          20.9520   -9.2440   -8.8620 S.o    503  DMS503      0.0000
      2 O          21.7780   -9.7060  -10.0310 O.2    503  DMS503      0.0000
      3 C1         21.3010   -7.5080   -8.6860 C.3    503  DMS503      0.0000
      4 C2         21.8340   -9.7990   -7.4180 C.3    503  DMS503      0.0000
      5 H          20.8537   -7.1279   -7.7449 H      503  DMS503      0.0000
      6 H          20.8576   -6.9573   -9.5407 H      503  DMS503      0.0000
      7 H          22.3963   -7.3324   -8.6724 H      503  DMS503      0.0000
      8 H          21.3755   -9.3634   -6.5068 H      503  DMS503      0.0000
      9 H          22.9002   -9.4980   -7.4757 H      503  DMS503      0.0000
     10 H          21.7738  -10.9048   -7.3552 H      503  DMS503      0.0000
@<TRIPOS>BOND
     1     1     2    2
     2     1     3    1
     3     1     4    1
     4     3     5    1
     5     3     6    1
     6     3     7    1
     7     4     8    1
     8     4     9    1
     9     4    10    1

