DMS_1_B_504
  -ISIS-            3D

 10  9  0  0  0  0  0  0  0  0  1 V2000
   16.8710    4.8890  -25.0890 S   0  0  0  0  0
   16.2600    4.0140  -26.1500 O   0  0  0  0  0
   18.6080    4.9520  -25.4450 C   0  0  0  0  0
   16.4610    6.5650  -25.5180 C   0  0  0  0  0
   19.1015    5.6913  -24.7812 H   0  0  0  0  0
   18.7754    5.2366  -26.5038 H   0  0  0  0  0
   19.0559    3.9535  -25.2641 H   0  0  0  0  0
   17.0021    7.2669  -24.8508 H   0  0  0  0  0
   15.3698    6.7191  -25.3913 H   0  0  0  0  0
   16.7352    6.7715  -26.5726 H   0  0  0  0  0
  1  2  2  0  0  0
  1  3  1  0  0  0
  1  4  1  0  0  0
  3  5  1  0  0  0
  3  6  1  0  0  0
  3  7  1  0  0  0
  4  8  1  0  0  0
  4  9  1  0  0  0
  4 10  1  0  0  0
M  END
$$$$
