@<TRIPOS>MOLECULE
DMS_1_B_505
 10 9 0 0 0
SMALL
NO_CHARGES

@<TRIPOS>ATOM
      1 S          24.8860   -8.8430  -37.6140 S.o    505  DMS505      0.0000
      2 O          23.8240   -9.2180  -38.5940 O.2    505  DMS505      0.0000
      3 C1         26.1090   -7.8890  -38.5160 C.3    505  DMS505      0.0000
      4 C2         25.8390  -10.3250  -37.4120 C.3    505  DMS505      0.0000
      5 H          27.0011   -7.7249  -37.8777 H      505  DMS505      0.0000
      6 H          25.6753   -6.9050  -38.7882 H      505  DMS505      0.0000
      7 H          26.4075   -8.4225  -39.4419 H      505  DMS505      0.0000
      8 H          26.7440  -10.1103  -36.8078 H      505  DMS505      0.0000
      9 H          26.1422  -10.7293  -38.3998 H      505  DMS505      0.0000
     10 H          25.2282  -11.0848  -36.8825 H      505  DMS505      0.0000
@<TRIPOS>BOND
     1     1     2    2
     2     1     3    1
     3     1     4    1
     4     3     5    1
     5     3     6    1
     6     3     7    1
     7     4     8    1
     8     4     9    1
     9     4    10    1

