DMS_1_A_502
  -ISIS-            3D

 10  9  0  0  0  0  0  0  0  0  1 V2000
    6.5700    4.1300  -11.4180 S   0  0  0  0  0
    6.2410    4.6420  -12.7710 O   0  0  0  0  0
    5.0980    3.3570  -10.7830 C   0  0  0  0  0
    7.6130    2.6930  -11.6040 C   0  0  0  0  0
    5.3202    2.8699   -9.8116 H   0  0  0  0  0
    4.7246    2.5974  -11.5002 H   0  0  0  0  0
    4.3151    4.1275  -10.6290 H   0  0  0  0  0
    7.7842    2.2244  -10.6134 H   0  0  0  0  0
    8.5891    3.0009  -12.0315 H   0  0  0  0  0
    7.1336    1.9584  -12.2832 H   0  0  0  0  0
  1  2  2  0  0  0
  1  3  1  0  0  0
  1  4  1  0  0  0
  3  5  1  0  0  0
  3  6  1  0  0  0
  3  7  1  0  0  0
  4  8  1  0  0  0
  4  9  1  0  0  0
  4 10  1  0  0  0
M  END
$$$$
