@<TRIPOS>MOLECULE
DMS_1_B_504
 10 9 0 0 0
SMALL
NO_CHARGES

@<TRIPOS>ATOM
      1 S          16.8710    4.8890  -25.0890 S.o    504  DMS504      0.0000
      2 O          16.2600    4.0140  -26.1500 O.2    504  DMS504      0.0000
      3 C1         18.6080    4.9520  -25.4450 C.3    504  DMS504      0.0000
      4 C2         16.4610    6.5650  -25.5180 C.3    504  DMS504      0.0000
      5 H          19.1015    5.6913  -24.7812 H      504  DMS504      0.0000
      6 H          18.7754    5.2366  -26.5038 H      504  DMS504      0.0000
      7 H          19.0559    3.9535  -25.2641 H      504  DMS504      0.0000
      8 H          17.0021    7.2669  -24.8508 H      504  DMS504      0.0000
      9 H          15.3698    6.7191  -25.3913 H      504  DMS504      0.0000
     10 H          16.7352    6.7715  -26.5726 H      504  DMS504      0.0000
@<TRIPOS>BOND
     1     1     2    2
     2     1     3    1
     3     1     4    1
     4     3     5    1
     5     3     6    1
     6     3     7    1
     7     4     8    1
     8     4     9    1
     9     4    10    1

