DMS_1_A_501
  -ISIS-            3D

 10  9  0  0  0  0  0  0  0  0  1 V2000
    2.2410  -28.9880   10.4370 S   0  0  0  0  0
    1.3990  -28.0980   11.3060 O   0  0  0  0  0
    2.7350  -28.0220    9.0340 C   0  0  0  0  0
    1.1210  -30.0900    9.6020 C   0  0  0  0  0
    3.2498  -28.6686    8.2941 H   0  0  0  0  0
    3.4356  -27.2277    9.3640 H   0  0  0  0  0
    1.8508  -27.5493    8.5600 H   0  0  0  0  0
    1.6734  -30.6871    8.8478 H   0  0  0  0  0
    0.3158  -29.5149    9.1012 H   0  0  0  0  0
    0.6660  -30.7797   10.3421 H   0  0  0  0  0
  1  2  2  0  0  0
  1  3  1  0  0  0
  1  4  1  0  0  0
  3  5  1  0  0  0
  3  6  1  0  0  0
  3  7  1  0  0  0
  4  8  1  0  0  0
  4  9  1  0  0  0
  4 10  1  0  0  0
M  END
$$$$
