@<TRIPOS>MOLECULE
DMS_1_A_502
 10 9 0 0 0
SMALL
NO_CHARGES

@<TRIPOS>ATOM
      1 S           6.5700    4.1300  -11.4180 S.o    502  DMS502      0.0000
      2 O           6.2410    4.6420  -12.7710 O.2    502  DMS502      0.0000
      3 C1          5.0980    3.3570  -10.7830 C.3    502  DMS502      0.0000
      4 C2          7.6130    2.6930  -11.6040 C.3    502  DMS502      0.0000
      5 H           5.3202    2.8699   -9.8116 H      502  DMS502      0.0000
      6 H           4.7246    2.5974  -11.5002 H      502  DMS502      0.0000
      7 H           4.3151    4.1275  -10.6290 H      502  DMS502      0.0000
      8 H           7.7842    2.2244  -10.6134 H      502  DMS502      0.0000
      9 H           8.5891    3.0009  -12.0315 H      502  DMS502      0.0000
     10 H           7.1336    1.9584  -12.2832 H      502  DMS502      0.0000
@<TRIPOS>BOND
     1     1     2    2
     2     1     3    1
     3     1     4    1
     4     3     5    1
     5     3     6    1
     6     3     7    1
     7     4     8    1
     8     4     9    1
     9     4    10    1

