FBB_1_A_201
  -ISIS-            3D

 16 17  0  0  0  0  0  0  0  0  1 V2000
  -46.0380  -29.1950    2.7910 F   0  0  0  0  0
  -47.1210  -29.1730    3.5820 C   0  0  0  0  0
  -48.3880  -29.0210    3.0100 C   0  0  0  0  0
  -49.4940  -28.9890    3.8340 C   0  0  0  0  0
  -46.9390  -29.3260    4.9360 C   0  0  0  0  0
  -48.0470  -29.3220    5.7650 C   0  0  0  0  0
  -48.2400  -29.4610    7.4140 S   0  0  0  0  0
  -49.9150  -29.3130    7.4210 C   0  0  0  0  0
  -50.7690  -29.3390    8.5790 N   0  0  0  0  0
  -50.3860  -29.1340    6.1520 N   0  0  0  0  0
  -49.2990  -29.1430    5.2150 C   0  0  0  0  0
  -48.4974  -28.9188    1.9209 H   0  0  0  0  0
  -50.5071  -28.8528    3.4233 H   0  0  0  0  0
  -45.9309  -29.4521    5.3550 H   0  0  0  0  0
  -50.3057  -29.4756    9.4862 H   0  0  0  0  0
  -51.7715  -29.2175    8.3898 H   0  0  0  0  0
  1  2  1  0  0  0
  2  3  2  0  0  0
  2  5  1  0  0  0
  3  4  1  0  0  0
  3 12  1  0  0  0
  4 11  2  0  0  0
  4 13  1  0  0  0
  5  6  2  0  0  0
  5 14  1  0  0  0
  6  7  1  0  0  0
  6 11  1  0  0  0
  7  8  1  0  0  0
  8  9  1  0  0  0
  8 10  1  0  0  0
  9 15  1  0  0  0
  9 16  1  0  0  0
 10 11  1  0  0  0
M  END
$$$$
