@<TRIPOS>MOLECULE
NOA_1_A_201
 24 25 0 0 0
SMALL
NO_CHARGES

@<TRIPOS>ATOM
      1 C         -43.4330  -32.0800    2.3400 C.2    201  NOA201      0.0000
      2 CA        -42.9850  -31.5230    0.9900 C.3    201  NOA201      0.0000
      3 C1        -44.3860  -29.7030    0.5480 C.ar   201  NOA201      0.0000
      4 C2        -45.4820  -30.5670    0.4940 C.ar   201  NOA201      0.0000
      5 C3        -46.7490  -30.0540    0.0900 C.ar   201  NOA201      0.0000
      6 C4        -46.8320  -28.7060   -0.0340 C.ar   201  NOA201      0.0000
      7 C4A       -45.7570  -27.8710   -0.0070 C.ar   201  NOA201      0.0000
      8 C5        -45.8610  -26.5410   -0.3060 C.ar   201  NOA201      0.0000
      9 C6        -44.8210  -25.6700   -0.1810 C.ar   201  NOA201      0.0000
     10 C7        -43.5610  -26.1670    0.1190 C.ar   201  NOA201      0.0000
     11 C8        -43.4390  -27.5340    0.3920 C.ar   201  NOA201      0.0000
     12 C1A       -44.5460  -28.3160    0.3410 C.ar   201  NOA201      0.0000
     13 O         -43.7200  -33.2800    2.3190 O.co2  201  NOA201     -0.5000
     14 OXT       -43.4340  -31.4810    3.3540 O.co2  201  NOA201     -0.5000
     15 O1        -43.1360  -30.1320    0.9100 O.3    201  NOA201      0.0000
     16 H         -43.4397  -32.0399    0.1201 H      201  NOA201      0.0000
     17 H         -41.8971  -31.7354    0.9018 H      201  NOA201      0.0000
     18 H         -45.4280  -31.6439    0.7143 H      201  NOA201      0.0000
     19 H         -47.6230  -30.7129   -0.0394 H      201  NOA201      0.0000
     20 H         -47.8290  -28.2772   -0.2390 H      201  NOA201      0.0000
     21 H         -46.8385  -26.1357   -0.6221 H      201  NOA201      0.0000
     22 H         -44.9644  -24.5910   -0.3602 H      201  NOA201      0.0000
     23 H         -42.6831  -25.5009    0.1604 H      201  NOA201      0.0000
     24 H         -42.4418  -27.9334    0.6392 H      201  NOA201      0.0000
@<TRIPOS>BOND
     1     1     2    1
     2     1    13   ar
     3     1    14   ar
     4     2    15    1
     5     2    16    1
     6     2    17    1
     7     3     4   ar
     8     3    12   ar
     9     3    15    1
    10     4     5   ar
    11     4    18    1
    12     5     6   ar
    13     5    19    1
    14     6     7   ar
    15     6    20    1
    16     7     8   ar
    17     7    12   ar
    18     8     9   ar
    19     8    21    1
    20     9    10   ar
    21     9    22    1
    22    10    11   ar
    23    10    23    1
    24    11    12   ar
    25    11    24    1

