@<TRIPOS>MOLECULE
DMS_2_A_401
 10 9 0 0 0
SMALL
NO_CHARGES

@<TRIPOS>ATOM
      1 S          -9.5390   -0.1590  -16.2920 S.o    401  DMS401      0.0000
      2 O          -9.9050    0.5880  -17.5460 O.2    401  DMS401      0.0000
      3 C1         -8.0740   -1.1190  -16.6410 C.3    401  DMS401      0.0000
      4 C2        -10.7050   -1.5370  -16.0930 C.3    401  DMS401      0.0000
      5 H          -7.8348   -1.7670  -15.7729 H      401  DMS401      0.0000
      6 H          -7.2218   -0.4331  -16.8242 H      401  DMS401      0.0000
      7 H          -8.2337   -1.7479  -17.5405 H      401  DMS401      0.0000
      8 H         -10.3909   -2.1704  -15.2383 H      401  DMS401      0.0000
      9 H         -10.7341   -2.1467  -17.0191 H      401  DMS401      0.0000
     10 H         -11.7171   -1.1305  -15.8911 H      401  DMS401      0.0000
@<TRIPOS>BOND
     1     1     2    2
     2     1     3    1
     3     1     4    1
     4     3     5    1
     5     3     6    1
     6     3     7    1
     7     4     8    1
     8     4     9    1
     9     4    10    1

