@<TRIPOS>MOLECULE
DMS_2_A_402
 10 9 0 0 0
SMALL
NO_CHARGES

@<TRIPOS>ATOM
      1 S           9.2250    1.7480   -0.4400 S.o    402  DMS402      0.0000
      2 O           8.1570    2.7560   -0.0960 O.2    402  DMS402      0.0000
      3 C1          9.4110    0.6280    0.9600 C.3    402  DMS402      0.0000
      4 C2          8.7700    0.6170   -1.7880 C.3    402  DMS402      0.0000
      5 H          10.2015   -0.1172    0.7363 H      402  DMS402      0.0000
      6 H           8.4518    0.1051    1.1524 H      402  DMS402      0.0000
      7 H           9.7006    1.2086    1.8596 H      402  DMS402      0.0000
      8 H           9.5870   -0.1159   -1.9478 H      402  DMS402      0.0000
      9 H           8.6133    1.2015   -2.7175 H      402  DMS402      0.0000
     10 H           7.8343    0.0819   -1.5263 H      402  DMS402      0.0000
@<TRIPOS>BOND
     1     1     2    2
     2     1     3    1
     3     1     4    1
     4     3     5    1
     5     3     6    1
     6     3     7    1
     7     4     8    1
     8     4     9    1
     9     4    10    1

