@<TRIPOS>MOLECULE
DMS_1_A_403
 10 9 0 0 0
SMALL
NO_CHARGES

@<TRIPOS>ATOM
      1 S           2.4480  -18.9710    8.0360 S.o    403  DMS403      0.0000
      2 O           3.7160  -18.7170    8.8570 O.2    403  DMS403      0.0000
      3 C1          1.1300  -18.1680    8.9310 C.3    403  DMS403      0.0000
      4 C2          1.9910  -20.6360    8.4600 C.3    403  DMS403      0.0000
      5 H           0.1503  -18.4594    8.5002 H      403  DMS403      0.0000
      6 H           1.2467  -17.0686    8.8426 H      403  DMS403      0.0000
      7 H           1.1620  -18.4486   10.0040 H      403  DMS403      0.0000
      8 H           0.9870  -20.8674    8.0491 H      403  DMS403      0.0000
      9 H           1.9797  -20.7683    9.5618 H      403  DMS403      0.0000
     10 H           2.7269  -21.3400    8.0205 H      403  DMS403      0.0000
@<TRIPOS>BOND
     1     1     2    2
     2     1     3    1
     3     1     4    1
     4     3     5    1
     5     3     6    1
     6     3     7    1
     7     4     8    1
     8     4     9    1
     9     4    10    1

