@<TRIPOS>MOLECULE
DMS_2_A_401
 10 9 0 0 0
SMALL
NO_CHARGES

@<TRIPOS>ATOM
      1 S          -6.9030  -28.0780  -21.5250 S.o    401  DMS401      0.0000
      2 O          -7.6910  -27.1570  -22.3690 O.2    401  DMS401      0.0000
      3 C1         -5.5970  -28.7520  -22.5340 C.3    401  DMS401      0.0000
      4 C2         -5.9400  -27.0740  -20.4480 C.3    401  DMS401      0.0000
      5 H          -4.9104  -29.3549  -21.9052 H      401  DMS401      0.0000
      6 H          -5.0290  -27.9345  -23.0235 H      401  DMS401      0.0000
      7 H          -6.0372  -29.4057  -23.3146 H      401  DMS401      0.0000
      8 H          -5.2423  -27.7090  -19.8646 H      401  DMS401      0.0000
      9 H          -6.6104  -26.5399  -19.7439 H      401  DMS401      0.0000
     10 H          -5.3599  -26.3285  -21.0298 H      401  DMS401      0.0000
@<TRIPOS>BOND
     1     1     2    2
     2     1     3    1
     3     1     4    1
     4     3     5    1
     5     3     6    1
     6     3     7    1
     7     4     8    1
     8     4     9    1
     9     4    10    1

