@<TRIPOS>MOLECULE
DMS_1_A_402
 10 9 0 0 0
SMALL
NO_CHARGES

@<TRIPOS>ATOM
      1 S           6.1550   -1.0460   -6.2760 S.o    402  DMS402      0.0000
      2 O           7.1980   -0.8180   -7.3060 O.2    402  DMS402      0.0000
      3 C1          6.9880   -0.9900   -4.6940 C.3    402  DMS402      0.0000
      4 C2          5.7870   -2.7680   -6.2900 C.3    402  DMS402      0.0000
      5 H           6.2843   -1.2835   -3.8884 H      402  DMS402      0.0000
      6 H           7.3405    0.0443   -4.5032 H      402  DMS402      0.0000
      7 H           7.8601   -1.6755   -4.6928 H      402  DMS402      0.0000
      8 H           5.1123   -3.0169   -5.4454 H      402  DMS402      0.0000
      9 H           6.7182   -3.3649   -6.2063 H      402  DMS402      0.0000
     10 H           5.2780   -3.0272   -7.2409 H      402  DMS402      0.0000
@<TRIPOS>BOND
     1     1     2    2
     2     1     3    1
     3     1     4    1
     4     3     5    1
     5     3     6    1
     6     3     7    1
     7     4     8    1
     8     4     9    1
     9     4    10    1

