DMS_1_A_403
  -ISIS-            3D

 10  9  0  0  0  0  0  0  0  0  1 V2000
    2.4480  -18.9710    8.0360 S   0  0  0  0  0
    3.7160  -18.7170    8.8570 O   0  0  0  0  0
    1.1300  -18.1680    8.9310 C   0  0  0  0  0
    1.9910  -20.6360    8.4600 C   0  0  0  0  0
    0.1503  -18.4594    8.5002 H   0  0  0  0  0
    1.2467  -17.0686    8.8426 H   0  0  0  0  0
    1.1620  -18.4486   10.0040 H   0  0  0  0  0
    0.9870  -20.8674    8.0491 H   0  0  0  0  0
    1.9797  -20.7683    9.5618 H   0  0  0  0  0
    2.7269  -21.3400    8.0205 H   0  0  0  0  0
  1  2  2  0  0  0
  1  3  1  0  0  0
  1  4  1  0  0  0
  3  5  1  0  0  0
  3  6  1  0  0  0
  3  7  1  0  0  0
  4  8  1  0  0  0
  4  9  1  0  0  0
  4 10  1  0  0  0
M  END
$$$$
