@<TRIPOS>MOLECULE
DMS_1_A_402
 10 9 0 0 0
SMALL
NO_CHARGES

@<TRIPOS>ATOM
      1 S           6.1140   -1.2250   -6.2300 S.o    402  DMS402      0.0000
      2 O           6.7450   -0.7290   -7.4920 O.2    402  DMS402      0.0000
      3 C1          7.2870   -0.9480   -4.9280 C.3    402  DMS402      0.0000
      4 C2          6.1820   -2.9950   -6.2800 C.3    402  DMS402      0.0000
      5 H           6.9221   -1.4110   -3.9884 H      402  DMS402      0.0000
      6 H           7.4059    0.1431   -4.7672 H      402  DMS402      0.0000
      7 H           8.2714   -1.3833   -5.1966 H      402  DMS402      0.0000
      8 H           5.8413   -3.4121   -5.3103 H      402  DMS402      0.0000
      9 H           7.2176   -3.3357   -6.4854 H      402  DMS402      0.0000
     10 H           5.5136   -3.3655   -7.0840 H      402  DMS402      0.0000
@<TRIPOS>BOND
     1     1     2    2
     2     1     3    1
     3     1     4    1
     4     3     5    1
     5     3     6    1
     6     3     7    1
     7     4     8    1
     8     4     9    1
     9     4    10    1

