@<TRIPOS>MOLECULE
DMS_1_A_401
 10 9 0 0 0
SMALL
NO_CHARGES

@<TRIPOS>ATOM
      1 S           6.9430  -28.1860   21.7010 S.o    401  DMS401      0.0000
      2 O           7.7870  -27.3770   22.6430 O.2    401  DMS401      0.0000
      3 C1          5.6410  -28.8540   22.7080 C.3    401  DMS401      0.0000
      4 C2          5.9690  -27.0590   20.7440 C.3    401  DMS401      0.0000
      5 H           4.8956  -29.3677   22.0670 H      401  DMS401      0.0000
      6 H           5.1412  -28.0457   23.2803 H      401  DMS401      0.0000
      7 H           6.0683  -29.5898   23.4197 H      401  DMS401      0.0000
      8 H           5.2245  -27.6205   20.1433 H      401  DMS401      0.0000
      9 H           6.6316  -26.4946   20.0563 H      401  DMS401      0.0000
     10 H           5.4434  -26.3423   21.4078 H      401  DMS401      0.0000
@<TRIPOS>BOND
     1     1     2    2
     2     1     3    1
     3     1     4    1
     4     3     5    1
     5     3     6    1
     6     3     7    1
     7     4     8    1
     8     4     9    1
     9     4    10    1

