DMS_2_A_401
  -ISIS-            3D

 10  9  0  0  0  0  0  0  0  0  1 V2000
   -6.9430  -28.1860  -21.7010 S   0  0  0  0  0
   -7.7870  -27.3770  -22.6430 O   0  0  0  0  0
   -5.6410  -28.8540  -22.7080 C   0  0  0  0  0
   -5.9690  -27.0590  -20.7440 C   0  0  0  0  0
   -4.8956  -29.3677  -22.0670 H   0  0  0  0  0
   -5.1412  -28.0457  -23.2803 H   0  0  0  0  0
   -6.0683  -29.5898  -23.4197 H   0  0  0  0  0
   -5.2245  -27.6205  -20.1433 H   0  0  0  0  0
   -6.6316  -26.4946  -20.0563 H   0  0  0  0  0
   -5.4434  -26.3423  -21.4078 H   0  0  0  0  0
  1  2  2  0  0  0
  1  3  1  0  0  0
  1  4  1  0  0  0
  3  5  1  0  0  0
  3  6  1  0  0  0
  3  7  1  0  0  0
  4  8  1  0  0  0
  4  9  1  0  0  0
  4 10  1  0  0  0
M  END
$$$$
