DMS_2_A_405
  -ISIS-            3D

 10  9  0  0  0  0  0  0  0  0  1 V2000
   -8.9190   -4.5070  -27.3020 S   0  0  0  0  0
   -9.6910   -5.0710  -26.1390 O   0  0  0  0  0
   -7.2590   -5.1060  -27.1300 C   0  0  0  0  0
   -8.5980   -2.8110  -26.8990 C   0  0  0  0  0
   -6.6007   -4.6107  -27.8726 H   0  0  0  0  0
   -7.2438   -6.2000  -27.3127 H   0  0  0  0  0
   -6.8787   -4.9060  -26.1073 H   0  0  0  0  0
   -7.9073   -2.3701  -27.6465 H   0  0  0  0  0
   -8.1484   -2.7310  -25.8880 H   0  0  0  0  0
   -9.5512   -2.2440  -26.9155 H   0  0  0  0  0
  1  2  2  0  0  0
  1  3  1  0  0  0
  1  4  1  0  0  0
  3  5  1  0  0  0
  3  6  1  0  0  0
  3  7  1  0  0  0
  4  8  1  0  0  0
  4  9  1  0  0  0
  4 10  1  0  0  0
M  END
$$$$
