@<TRIPOS>MOLECULE
DMS_1_A_402
 10 9 0 0 0
SMALL
NO_CHARGES

@<TRIPOS>ATOM
      1 S           6.1180   -1.1330   -6.2530 S.o    402  DMS402      0.0000
      2 O           7.0610   -0.8010   -7.3500 O.2    402  DMS402      0.0000
      3 C1          7.0200   -0.9840   -4.7200 C.3    402  DMS402      0.0000
      4 C2          5.9200   -2.8880   -6.2290 C.3    402  DMS402      0.0000
      5 H           6.3912   -1.3373   -3.8773 H      402  DMS402      0.0000
      6 H           7.2798    0.0811   -4.5511 H      402  DMS402      0.0000
      7 H           7.9539   -1.5813   -4.7621 H      402  DMS402      0.0000
      8 H           5.3203   -3.1886   -5.3457 H      402  DMS402      0.0000
      9 H           6.9089   -3.3893   -6.1924 H      402  DMS402      0.0000
     10 H           5.3877   -3.2095   -7.1475 H      402  DMS402      0.0000
@<TRIPOS>BOND
     1     1     2    2
     2     1     3    1
     3     1     4    1
     4     3     5    1
     5     3     6    1
     6     3     7    1
     7     4     8    1
     8     4     9    1
     9     4    10    1

