DMS_1_A_403
  -ISIS-            3D

 10  9  0  0  0  0  0  0  0  0  1 V2000
    2.4250  -18.9540    8.0620 S   0  0  0  0  0
    3.7080  -18.6210    8.8040 O   0  0  0  0  0
    1.1120  -18.1630    8.9750 C   0  0  0  0  0
    2.0560  -20.6240    8.5530 C   0  0  0  0  0
    0.1288  -18.5054    8.5924 H   0  0  0  0  0
    1.1853  -17.0642    8.8417 H   0  0  0  0  0
    1.1931  -18.4018   10.0553 H   0  0  0  0  0
    1.0479  -20.9092    8.1886 H   0  0  0  0  0
    2.0910  -20.7207    9.6576 H   0  0  0  0  0
    2.8045  -21.3104    8.1068 H   0  0  0  0  0
  1  2  2  0  0  0
  1  3  1  0  0  0
  1  4  1  0  0  0
  3  5  1  0  0  0
  3  6  1  0  0  0
  3  7  1  0  0  0
  4  8  1  0  0  0
  4  9  1  0  0  0
  4 10  1  0  0  0
M  END
$$$$
