@<TRIPOS>MOLECULE
DMS_1_A_403
 10 9 0 0 0
SMALL
NO_CHARGES

@<TRIPOS>ATOM
      1 S           2.4250  -18.9540    8.0620 S.o    403  DMS403      0.0000
      2 O           3.7080  -18.6210    8.8040 O.2    403  DMS403      0.0000
      3 C1          1.1120  -18.1630    8.9750 C.3    403  DMS403      0.0000
      4 C2          2.0560  -20.6240    8.5530 C.3    403  DMS403      0.0000
      5 H           0.1288  -18.5054    8.5924 H      403  DMS403      0.0000
      6 H           1.1853  -17.0642    8.8417 H      403  DMS403      0.0000
      7 H           1.1931  -18.4018   10.0553 H      403  DMS403      0.0000
      8 H           1.0479  -20.9092    8.1886 H      403  DMS403      0.0000
      9 H           2.0910  -20.7207    9.6576 H      403  DMS403      0.0000
     10 H           2.8045  -21.3104    8.1068 H      403  DMS403      0.0000
@<TRIPOS>BOND
     1     1     2    2
     2     1     3    1
     3     1     4    1
     4     3     5    1
     5     3     6    1
     6     3     7    1
     7     4     8    1
     8     4     9    1
     9     4    10    1

