@<TRIPOS>MOLECULE
DMS_1_A_501
 10 9 0 0 0
SMALL
NO_CHARGES

@<TRIPOS>ATOM
      1 S         -15.2420   14.1210   17.5940 S.o    501  DMS501      0.0000
      2 O         -16.3880   13.1710   17.6800 O.2    501  DMS501      0.0000
      3 C1        -13.8100   13.1210   17.2310 C.3    501  DMS501      0.0000
      4 C2        -14.8400   14.5470   19.2760 C.3    501  DMS501      0.0000
      5 H         -12.8928   13.7414   17.2981 H      501  DMS501      0.0000
      6 H         -13.8963   12.7178   16.2013 H      501  DMS501      0.0000
      7 H         -13.7383   12.2763   17.9461 H      501  DMS501      0.0000
      8 H         -13.9006   15.1367   19.2993 H      501  DMS501      0.0000
      9 H         -14.7161   13.6299   19.8873 H      501  DMS501      0.0000
     10 H         -15.6591   15.1600   19.7046 H      501  DMS501      0.0000
@<TRIPOS>BOND
     1     1     2    2
     2     1     3    1
     3     1     4    1
     4     3     5    1
     5     3     6    1
     6     3     7    1
     7     4     8    1
     8     4     9    1
     9     4    10    1

