@<TRIPOS>MOLECULE
DMS_2_A_401
 10 9 0 0 0
SMALL
NO_CHARGES

@<TRIPOS>ATOM
      1 S          -7.0070  -28.0560  -21.5320 S.o    401  DMS401      0.0000
      2 O          -7.6820  -26.9940  -22.2940 O.2    401  DMS401      0.0000
      3 C1         -5.6720  -28.6430  -22.5690 C.3    401  DMS401      0.0000
      4 C2         -6.0340  -27.2360  -20.3170 C.3    401  DMS401      0.0000
      5 H          -5.0336  -29.3462  -21.9961 H      401  DMS401      0.0000
      6 H          -5.0574  -27.7909  -22.9252 H      401  DMS401      0.0000
      7 H          -6.0963  -29.1751  -23.4449 H      401  DMS401      0.0000
      8 H          -5.3853  -27.9691  -19.7955 H      401  DMS401      0.0000
      9 H          -6.7019  -26.7578  -19.5716 H      401  DMS401      0.0000
     10 H          -5.4019  -26.4551  -20.7874 H      401  DMS401      0.0000
@<TRIPOS>BOND
     1     1     2    2
     2     1     3    1
     3     1     4    1
     4     3     5    1
     5     3     6    1
     6     3     7    1
     7     4     8    1
     8     4     9    1
     9     4    10    1

