@<TRIPOS>MOLECULE
DMS_2_A_403
 10 9 0 0 0
SMALL
NO_CHARGES

@<TRIPOS>ATOM
      1 S          -2.4280  -18.6990   -8.0470 S.o    403  DMS403      0.0000
      2 O          -3.6480  -18.8570   -8.9990 O.2    403  DMS403      0.0000
      3 C1         -1.0710  -18.2780   -9.1260 C.3    403  DMS403      0.0000
      4 C2         -1.8990  -20.3520   -7.7550 C.3    403  DMS403      0.0000
      5 H          -0.1138  -18.3300   -8.5678 H      403  DMS403      0.0000
      6 H          -1.2102  -17.2421   -9.4977 H      403  DMS403      0.0000
      7 H          -1.0330  -18.9682   -9.9937 H      403  DMS403      0.0000
      8 H          -0.9183  -20.3511   -7.2367 H      403  DMS403      0.0000
      9 H          -1.8120  -20.9117   -8.7089 H      403  DMS403      0.0000
     10 H          -2.6402  -20.8638   -7.1076 H      403  DMS403      0.0000
@<TRIPOS>BOND
     1     1     2    2
     2     1     3    1
     3     1     4    1
     4     3     5    1
     5     3     6    1
     6     3     7    1
     7     4     8    1
     8     4     9    1
     9     4    10    1

