DMS_1_A_403
  -ISIS-            3D

 10  9  0  0  0  0  0  0  0  0  1 V2000
    2.4280  -18.6990    8.0470 S   0  0  0  0  0
    3.6480  -18.8570    8.9990 O   0  0  0  0  0
    1.0710  -18.2780    9.1260 C   0  0  0  0  0
    1.8990  -20.3520    7.7550 C   0  0  0  0  0
    0.1138  -18.3300    8.5678 H   0  0  0  0  0
    1.2102  -17.2421    9.4977 H   0  0  0  0  0
    1.0330  -18.9682    9.9937 H   0  0  0  0  0
    0.9183  -20.3511    7.2367 H   0  0  0  0  0
    1.8120  -20.9117    8.7089 H   0  0  0  0  0
    2.6402  -20.8638    7.1076 H   0  0  0  0  0
  1  2  2  0  0  0
  1  3  1  0  0  0
  1  4  1  0  0  0
  3  5  1  0  0  0
  3  6  1  0  0  0
  3  7  1  0  0  0
  4  8  1  0  0  0
  4  9  1  0  0  0
  4 10  1  0  0  0
M  END
$$$$
