@<TRIPOS>MOLECULE
ADP_1_A_201
 41 43 0 0 0
SMALL
NO_CHARGES

@<TRIPOS>ATOM
      1 PB          3.8240    3.9730   14.2820 P.3    201  ADP201      0.0000
      2 O1B         2.3390    4.2990   14.1160 O.co2  201  ADP201     -0.5000
      3 O2B         4.3840    4.9020   15.2760 O.co2  201  ADP201     -0.5000
      4 O3B         3.9840    2.5380   14.6670 O.co2  201  ADP201      0.0000
      5 PA          4.9470    5.3580   11.8880 P.3    201  ADP201      0.0000
      6 O1A         4.4880    5.1630   10.5220 O.co2  201  ADP201      0.0000
      7 O2A         4.4730    6.7230   12.4420 O.co2  201  ADP201      0.0000
      8 O3A         4.5100    4.1120   12.8080 O.3    201  ADP201      0.0000
      9 O5'         6.4560    5.3770   11.8080 O.3    201  ADP201      0.0000
     10 C5'         7.3240    4.5440   12.5760 C.3    201  ADP201      0.0000
     11 C4'         8.7820    5.1220   12.3780 C.3    201  ADP201      0.0000
     12 O4'         9.1830    4.9960   11.1160 O.3    201  ADP201      0.0000
     13 C3'         8.7880    6.6290   12.6600 C.3    201  ADP201      0.0000
     14 O3'         9.9430    6.9900   13.3060 O.3    201  ADP201      0.0000
     15 C2'         8.7140    7.2240   11.2240 C.3    201  ADP201      0.0000
     16 O2'         9.1180    8.6640   11.2450 O.3    201  ADP201      0.0000
     17 C1'         9.4920    6.4570   10.5040 C.3    201  ADP201      0.0000
     18 N9          9.1630    6.3950    9.1230 N.ar   201  ADP201      0.0000
     19 C8          8.0940    6.9090    8.4780 C.ar   201  ADP201      0.0000
     20 N7          8.1910    6.6080    7.1590 N.ar   201  ADP201      0.0000
     21 C5          9.3310    5.8710    6.9970 C.ar   201  ADP201      0.0000
     22 C6          9.8980    5.3060    5.8560 C.ar   201  ADP201      0.0000
     23 N6          9.4600    5.3140    4.5130 N.3    201  ADP201      0.0000
     24 N1         11.0560    4.6230    5.9720 N.ar   201  ADP201      0.0000
     25 C2         11.6470    4.4800    7.1850 C.ar   201  ADP201      0.0000
     26 N3         11.1100    5.0510    8.3130 N.ar   201  ADP201      0.0000
     27 C4          9.9220    5.7380    8.1940 C.ar   201  ADP201      0.0000
     28 H           7.2688    3.4922   12.2261 H      201  ADP201      0.0000
     29 H           7.0541    4.5757   13.6524 H      201  ADP201      0.0000
     30 H           9.4757    4.5818   13.0550 H      201  ADP201      0.0000
     31 H           7.9083    6.9506   13.2573 H      201  ADP201      0.0000
     32 H           9.8749    6.7716   14.2258 H      201  ADP201      0.0000
     33 H           7.6535    7.1764   10.9079 H      201  ADP201      0.0000
     34 H           9.7530    8.7526   11.9472 H      201  ADP201      0.0000
     35 H          10.5745    6.6789   10.6142 H      201  ADP201      0.0000
     36 H           7.2359    7.4997    8.8208 H      201  ADP201      0.0000
     37 H          10.0624    4.8194    3.8436 H      201  ADP201      0.0000
     38 H           8.5806    5.8122    4.3249 H      201  ADP201      0.0000
     39 H          12.5918    3.9193    7.2634 H      201  ADP201      0.0000
     40 H           4.7978    4.1459   10.1346 H      201  ADP201      0.0000
     41 H           3.5344    1.8601   13.8805 H      201  ADP201      0.0000
@<TRIPOS>BOND
     1     1     2   ar
     2     1     3   ar
     3     1     4    1
     4     1     8    1
     5     5     6    1
     6     5     7    2
     7     5     8    1
     8     5     9    1
     9     9    10    1
    10    10    11    1
    11    10    28    1
    12    10    29    1
    13    11    12    1
    14    11    13    1
    15    11    30    1
    16    12    17    1
    17    13    14    1
    18    13    15    1
    19    13    31    1
    20    14    32    1
    21    15    16    1
    22    15    17    1
    23    15    33    1
    24    16    34    1
    25    17    18    1
    26    17    35    1
    27    18    19   ar
    28    18    27   ar
    29    19    20   ar
    30    19    36    1
    31    20    21   ar
    32    21    22   ar
    33    21    27   ar
    34    22    23    1
    35    22    24   ar
    36    23    37    1
    37    23    38    1
    38    24    25   ar
    39    25    26   ar
    40    25    39    1
    41    26    27   ar
    42     6    40    1
    43     4    41    1

