@<TRIPOS>MOLECULE
DMS_1_B_501
 10 9 0 0 0
SMALL
NO_CHARGES

@<TRIPOS>ATOM
      1 S          37.6710   -6.4600   -8.7940 S.o    501  DMS501      0.0000
      2 O          37.0470   -7.4390   -9.7560 O.2    501  DMS501      0.0000
      3 C1         36.7590   -6.6060   -7.2770 C.3    501  DMS501      0.0000
      4 C2         37.1320   -4.8450   -9.2980 C.3    501  DMS501      0.0000
      5 H          37.0840   -5.8184   -6.5666 H      501  DMS501      0.0000
      6 H          36.9545   -7.6000   -6.8252 H      501  DMS501      0.0000
      7 H          35.6717   -6.5033   -7.4701 H      501  DMS501      0.0000
      8 H          37.4508   -4.0921   -8.5483 H      501  DMS501      0.0000
      9 H          36.0277   -4.8217   -9.3983 H      501  DMS501      0.0000
     10 H          37.5901   -4.5938  -10.2765 H      501  DMS501      0.0000
@<TRIPOS>BOND
     1     1     2    2
     2     1     3    1
     3     1     4    1
     4     3     5    1
     5     3     6    1
     6     3     7    1
     7     4     8    1
     8     4     9    1
     9     4    10    1

