@<TRIPOS>MOLECULE
DMS_1_B_502
 10 9 0 0 0
SMALL
NO_CHARGES

@<TRIPOS>ATOM
      1 S          -0.7040  -11.3720  -18.4610 S.o    502  DMS502      0.0000
      2 O          -0.9360  -12.8810  -18.4100 O.2    502  DMS502      0.0000
      3 C1          0.2300  -10.9920  -19.9410 C.3    502  DMS502      0.0000
      4 C2          0.5590  -11.0360  -17.2600 C.3    502  DMS502      0.0000
      5 H           0.5265   -9.9232  -19.9330 H      502  DMS502      0.0000
      6 H          -0.4029  -11.1842  -20.8314 H      502  DMS502      0.0000
      7 H           1.1366  -11.6289  -19.9957 H      502  DMS502      0.0000
      8 H           0.8586   -9.9697  -17.3181 H      502  DMS502      0.0000
      9 H           1.4443  -11.6792  -17.4419 H      502  DMS502      0.0000
     10 H           0.1640  -11.2427  -16.2443 H      502  DMS502      0.0000
@<TRIPOS>BOND
     1     1     2    2
     2     1     3    1
     3     1     4    1
     4     3     5    1
     5     3     6    1
     6     3     7    1
     7     4     8    1
     8     4     9    1
     9     4    10    1

