@<TRIPOS>MOLECULE
DMS_1_A_501
 10 9 0 0 0
SMALL
NO_CHARGES

@<TRIPOS>ATOM
      1 S           2.2410  -28.9880   10.4370 S.o    501  DMS501      0.0000
      2 O           1.3990  -28.0980   11.3060 O.2    501  DMS501      0.0000
      3 C1          2.7350  -28.0220    9.0340 C.3    501  DMS501      0.0000
      4 C2          1.1210  -30.0900    9.6020 C.3    501  DMS501      0.0000
      5 H           3.2498  -28.6686    8.2941 H      501  DMS501      0.0000
      6 H           3.4356  -27.2277    9.3640 H      501  DMS501      0.0000
      7 H           1.8508  -27.5493    8.5600 H      501  DMS501      0.0000
      8 H           1.6734  -30.6871    8.8478 H      501  DMS501      0.0000
      9 H           0.3158  -29.5149    9.1012 H      501  DMS501      0.0000
     10 H           0.6660  -30.7797   10.3421 H      501  DMS501      0.0000
@<TRIPOS>BOND
     1     1     2    2
     2     1     3    1
     3     1     4    1
     4     3     5    1
     5     3     6    1
     6     3     7    1
     7     4     8    1
     8     4     9    1
     9     4    10    1

