@<TRIPOS>MOLECULE
DMS_1_B_702
 10 9 0 0 0
SMALL
NO_CHARGES

@<TRIPOS>ATOM
      1 S          25.3950   -9.4270  -37.5520 S.o    702  DMS702      0.0000
      2 O          24.4630   -8.9780  -38.6360 O.2    702  DMS702      0.0000
      3 C1         27.0290   -8.9850  -38.1040 C.3    702  DMS702      0.0000
      4 C2         25.5400  -11.1910  -37.7220 C.3    702  DMS702      0.0000
      5 H          27.7865   -9.4151  -37.4173 H      702  DMS702      0.0000
      6 H          27.1297   -7.8801  -38.1022 H      702  DMS702      0.0000
      7 H          27.2049   -9.3629  -39.1321 H      702  DMS702      0.0000
      8 H          26.3307  -11.5702  -37.0428 H      702  DMS702      0.0000
      9 H          25.7919  -11.4590  -38.7686 H      702  DMS702      0.0000
     10 H          24.5751  -11.6658  -37.4491 H      702  DMS702      0.0000
@<TRIPOS>BOND
     1     1     2    2
     2     1     3    1
     3     1     4    1
     4     3     5    1
     5     3     6    1
     6     3     7    1
     7     4     8    1
     8     4     9    1
     9     4    10    1

