DMS_1_B_704
  -ISIS-            3D

 10  9  0  0  0  0  0  0  0  0  1 V2000
   20.4370  -21.2680  -24.2960 S   0  0  0  0  0
   21.1990  -20.1440  -23.6280 O   0  0  0  0  0
   20.1880  -22.5140  -23.0530 C   0  0  0  0  0
   18.7450  -20.7340  -24.4370 C   0  0  0  0  0
   19.5189  -23.3074  -23.4440 H   0  0  0  0  0
   19.7395  -22.0670  -22.1419 H   0  0  0  0  0
   21.1652  -22.9678  -22.7890 H   0  0  0  0  0
   18.1140  -21.5731  -24.7945 H   0  0  0  0  0
   18.6839  -19.9028  -25.1689 H   0  0  0  0  0
   18.3688  -20.3794  -23.4553 H   0  0  0  0  0
  1  2  2  0  0  0
  1  3  1  0  0  0
  1  4  1  0  0  0
  3  5  1  0  0  0
  3  6  1  0  0  0
  3  7  1  0  0  0
  4  8  1  0  0  0
  4  9  1  0  0  0
  4 10  1  0  0  0
M  END
$$$$
