@<TRIPOS>MOLECULE
DMS_1_B_701
 10 9 0 0 0
SMALL
NO_CHARGES

@<TRIPOS>ATOM
      1 S          20.8480   -9.4870   -8.3310 S.o    701  DMS701      0.0000
      2 O          21.6150  -10.1400   -9.4470 O.2    701  DMS701      0.0000
      3 C1         21.0570   -7.7330   -8.5400 C.3    701  DMS701      0.0000
      4 C2         21.8410   -9.6790   -6.8690 C.3    701  DMS701      0.0000
      5 H          20.6328   -7.1970   -7.6663 H      701  DMS701      0.0000
      6 H          20.5213   -7.4069   -9.4550 H      701  DMS701      0.0000
      7 H          22.1323   -7.4816   -8.6420 H      701  DMS701      0.0000
      8 H          21.3989   -9.0965   -6.0348 H      701  DMS701      0.0000
      9 H          22.8765   -9.3289   -7.0565 H      701  DMS701      0.0000
     10 H          21.8681  -10.7503   -6.5827 H      701  DMS701      0.0000
@<TRIPOS>BOND
     1     1     2    2
     2     1     3    1
     3     1     4    1
     4     3     5    1
     5     3     6    1
     6     3     7    1
     7     4     8    1
     8     4     9    1
     9     4    10    1

