@<TRIPOS>MOLECULE
FMT_1_A_601
 3 2 0 0 0
SMALL
NO_CHARGES

@<TRIPOS>ATOM
      1 C          31.0250    9.3460    0.8730 C.2    601  FMT601      0.0000
      2 O1         32.1230    9.0070    0.4060 O.2    601  FMT601      0.0000
      3 O2         30.2010    8.6080    1.4380 O.2    601  FMT601     -0.5000
@<TRIPOS>BOND
     1     1     2   ar
     2     1     3   ar

