@<TRIPOS>MOLECULE
FMT_1_B_704
 3 2 0 0 0
SMALL
NO_CHARGES

@<TRIPOS>ATOM
      1 C          31.9880  -38.8760   -0.8770 C.2    704  FMT704      0.0000
      2 O1         32.6950  -39.2990   -1.7980 O.2    704  FMT704      0.0000
      3 O2         30.8070  -38.5230   -0.9890 O.2    704  FMT704     -0.5000
@<TRIPOS>BOND
     1     1     2   ar
     2     1     3   ar

