@<TRIPOS>MOLECULE
FMT_1_B_711
 3 2 0 0 0
SMALL
NO_CHARGES

@<TRIPOS>ATOM
      1 C          27.5100   -3.4730  -19.1640 C.2    711  FMT711      0.0000
      2 O1         26.8680   -4.1300  -18.3430 O.2    711  FMT711      0.0000
      3 O2         28.7340   -3.3340  -19.1110 O.2    711  FMT711     -0.5000
@<TRIPOS>BOND
     1     1     2   ar
     2     1     3   ar

