@<TRIPOS>MOLECULE
FMT_1_B_713
 3 2 0 0 0
SMALL
NO_CHARGES

@<TRIPOS>ATOM
      1 C          53.2750  -30.8970    9.5160 C.2    713  FMT713      0.0000
      2 O1         52.0500  -31.0040    9.6100 O.2    713  FMT713      0.0000
      3 O2         53.9110  -30.9950    8.4600 O.2    713  FMT713     -0.5000
@<TRIPOS>BOND
     1     1     2   ar
     2     1     3   ar

