@<TRIPOS>MOLECULE
FMT_1_B_703
 3 2 0 0 0
SMALL
NO_CHARGES

@<TRIPOS>ATOM
      1 C          26.7420  -37.9830    4.9530 C.2    703  FMT703      0.0000
      2 O1         26.4280  -38.2720    6.1120 O.2    703  FMT703      0.0000
      3 O2         27.5720  -38.6060    4.2840 O.2    703  FMT703     -0.5000
@<TRIPOS>BOND
     1     1     2   ar
     2     1     3   ar

