@<TRIPOS>MOLECULE
FMT_1_B_710
 3 2 0 0 0
SMALL
NO_CHARGES

@<TRIPOS>ATOM
      1 C          33.2980  -30.8260  -18.2230 C.2    710  FMT710      0.0000
      2 O1         34.4540  -31.1900  -18.4360 O.2    710  FMT710      0.0000
      3 O2         32.5780  -30.2220  -19.0260 O.2    710  FMT710     -0.5000
@<TRIPOS>BOND
     1     1     2   ar
     2     1     3   ar

