@<TRIPOS>MOLECULE
FMT_1_A_602
 3 2 0 0 0
SMALL
NO_CHARGES

@<TRIPOS>ATOM
      1 C          38.7950    3.5630   -4.2580 C.2    602  FMT602      0.0000
      2 O1         37.8330    3.4500   -5.0250 O.2    602  FMT602      0.0000
      3 O2         39.9820    3.4410   -4.5730 O.2    602  FMT602     -0.5000
@<TRIPOS>BOND
     1     1     2   ar
     2     1     3   ar

