@<TRIPOS>MOLECULE
FMT_1_B_706
 3 2 0 0 0
SMALL
NO_CHARGES

@<TRIPOS>ATOM
      1 C          39.6580  -49.2290   17.0760 C.2    706  FMT706      0.0000
      2 O1         40.5400  -49.5190   16.2590 O.2    706  FMT706      0.0000
      3 O2         39.8070  -48.5580   18.1110 O.2    706  FMT706     -0.5000
@<TRIPOS>BOND
     1     1     2   ar
     2     1     3   ar

