@<TRIPOS>MOLECULE
K36_1_B_401
 60 61 0 0 0
SMALL
NO_CHARGES

@<TRIPOS>ATOM
      1 C7        -40.3000    4.4000  -27.9270 C.3    401  K36401      0.0000
      2 O8        -40.0340    3.0210  -28.0510 O.3    401  K36401      0.0000
      3 C9        -39.3130    2.4730  -26.9720 C.2    401  K36401      0.0000
      4 O10       -38.5770    3.1110  -26.2970 O.2    401  K36401      0.0000
      5 C1        -39.2560    5.2050  -28.7350 C.ar   401  K36401      0.0000
      6 C2        -39.6650    6.2670  -29.5610 C.ar   401  K36401      0.0000
      7 C3        -38.7210    6.9830  -30.2890 C.ar   401  K36401      0.0000
      8 C4        -37.3730    6.6390  -30.1690 C.ar   401  K36401      0.0000
      9 C5        -36.9570    5.5900  -29.3400 C.ar   401  K36401      0.0000
     10 C6        -37.9040    4.8670  -28.6250 C.ar   401  K36401      0.0000
     11 N11       -39.4790    1.0740  -26.6390 N.am   401  K36401      0.0000
     12 C12       -39.2170    0.7280  -25.2710 C.3    401  K36401      0.0000
     13 C17       -37.6760    0.7200  -25.0920 C.2    401  K36401      0.0000
     14 O18       -36.8390    0.4290  -25.9170 O.2    401  K36401      0.0000
     15 C13       -39.7890   -0.6130  -24.8780 C.3    401  K36401      0.0000
     16 C14       -41.3110   -0.5020  -24.8100 C.3    401  K36401      0.0000
     17 C15       -41.8670    0.6570  -23.9830 C.3    401  K36401      0.0000
     18 C16       -41.8780   -1.7770  -24.1540 C.3    401  K36401      0.0000
     19 N19       -37.1880    1.0890  -23.7720 N.am   401  K36401      0.0000
     20 C20       -35.7450    1.0860  -23.5180 C.3    401  K36401      0.0000
     21 C21       -35.6100    0.0710  -22.4090 C.3    401  K36401      0.0000
     22 O22       -34.3320   -0.2840  -22.1710 O.3    401  K36401      0.0000
     23 C24       -35.2230    2.4840  -23.2710 C.3    401  K36401      0.0000
     24 C25       -35.2440    3.3800  -24.5720 C.3    401  K36401      0.0000
     25 C26       -34.3840    2.7430  -25.7020 C.3    401  K36401      0.0000
     26 C27       -33.4650    3.7810  -26.1970 C.3    401  K36401      0.0000
     27 N28       -33.6190    5.0020  -25.3050 N.am   401  K36401      0.0000
     28 C29       -34.7170    4.7130  -24.3150 C.2    401  K36401      0.0000
     29 O30       -35.1200    5.4880  -23.5290 O.2    401  K36401      0.0000
     30 H         -40.3103    4.7498  -26.8742 H      401  K36401      0.0000
     31 H         -41.3141    4.6051  -28.3278 H      401  K36401      0.0000
     32 H         -40.7319    6.5359  -29.6405 H      401  K36401      0.0000
     33 H         -39.0307    7.8122  -30.9473 H      401  K36401      0.0000
     34 H         -36.6179    7.2068  -30.7397 H      401  K36401      0.0000
     35 H         -35.8863    5.3369  -29.2579 H      401  K36401      0.0000
     36 H         -37.5504    4.0434  -27.9915 H      401  K36401      0.0000
     37 H         -39.8371    0.4116  -27.3375 H      401  K36401      0.0000
     38 H         -39.6060    1.5166  -24.5879 H      401  K36401      0.0000
     39 H         -39.3919   -0.9033  -23.8777 H      401  K36401      0.0000
     40 H         -39.4765   -1.4050  -25.5962 H      401  K36401      0.0000
     41 H         -41.7196   -0.4277  -25.8471 H      401  K36401      0.0000
     42 H         -42.9677    0.5724  -23.8410 H      401  K36401      0.0000
     43 H         -41.7042    1.6424  -24.4722 H      401  K36401      0.0000
     44 H         -41.4106    0.7052  -22.9688 H      401  K36401      0.0000
     45 H         -42.9911   -1.7885  -24.1596 H      401  K36401      0.0000
     46 H         -41.5508   -1.8871  -23.0957 H      401  K36401      0.0000
     47 H         -41.5488   -2.6923  -24.6953 H      401  K36401      0.0000
     48 H         -37.8496    1.3653  -23.0331 H      401  K36401      0.0000
     49 H         -35.1961    0.6593  -24.3860 H      401  K36401      0.0000
     50 H         -36.1987   -0.8448  -22.6421 H      401  K36401      0.0000
     51 H         -36.0404    0.4820  -21.4704 H      401  K36401      0.0000
     52 H         -34.0209   -0.8465  -22.8683 H      401  K36401      0.0000
     53 H         -34.1761    2.4277  -22.8922 H      401  K36401      0.0000
     54 H         -35.8231    2.9727  -22.4693 H      401  K36401      0.0000
     55 H         -36.2960    3.4854  -24.9272 H      401  K36401      0.0000
     56 H         -35.0294    2.3496  -26.5198 H      401  K36401      0.0000
     57 H         -33.7850    1.8890  -25.3139 H      401  K36401      0.0000
     58 H         -33.7083    4.0454  -27.2517 H      401  K36401      0.0000
     59 H         -32.4115    3.4195  -26.1922 H      401  K36401      0.0000
     60 H         -33.0991    5.8867  -25.3464 H      401  K36401      0.0000
@<TRIPOS>BOND
     1     1     2    1
     2     1     5    1
     3     1    30    1
     4     1    31    1
     5     2     3    1
     6     3     4    2
     7     3    11    1
     8     5     6   ar
     9     5    10   ar
    10     6     7   ar
    11     6    32    1
    12     7     8   ar
    13     7    33    1
    14     8     9   ar
    15     8    34    1
    16     9    10   ar
    17     9    35    1
    18    10    36    1
    19    11    12    1
    20    11    37    1
    21    12    13    1
    22    12    15    1
    23    12    38    1
    24    13    14    2
    25    13    19    1
    26    15    16    1
    27    15    39    1
    28    15    40    1
    29    16    17    1
    30    16    18    1
    31    16    41    1
    32    17    42    1
    33    17    43    1
    34    17    44    1
    35    18    45    1
    36    18    46    1
    37    18    47    1
    38    19    20    1
    39    19    48    1
    40    20    21    1
    41    20    23    1
    42    20    49    1
    43    21    22    1
    44    21    50    1
    45    21    51    1
    46    22    52    1
    47    23    24    1
    48    23    53    1
    49    23    54    1
    50    24    25    1
    51    24    28    1
    52    24    55    1
    53    25    26    1
    54    25    56    1
    55    25    57    1
    56    26    27    1
    57    26    58    1
    58    26    59    1
    59    27    28    1
    60    27    60    1
    61    28    29    2

