K36_1_B_401
  -ISIS-            3D

 60 61  0  0  0  0  0  0  0  0  1 V2000
  -40.3000    4.4000  -27.9270 C   0  0  0  0  0
  -40.0340    3.0210  -28.0510 O   0  0  0  0  0
  -39.3130    2.4730  -26.9720 C   0  0  0  0  0
  -38.5770    3.1110  -26.2970 O   0  0  0  0  0
  -39.2560    5.2050  -28.7350 C   0  0  0  0  0
  -39.6650    6.2670  -29.5610 C   0  0  0  0  0
  -38.7210    6.9830  -30.2890 C   0  0  0  0  0
  -37.3730    6.6390  -30.1690 C   0  0  0  0  0
  -36.9570    5.5900  -29.3400 C   0  0  0  0  0
  -37.9040    4.8670  -28.6250 C   0  0  0  0  0
  -39.4790    1.0740  -26.6390 N   0  0  0  0  0
  -39.2170    0.7280  -25.2710 C   0  0  0  0  0
  -37.6760    0.7200  -25.0920 C   0  0  0  0  0
  -36.8390    0.4290  -25.9170 O   0  0  0  0  0
  -39.7890   -0.6130  -24.8780 C   0  0  0  0  0
  -41.3110   -0.5020  -24.8100 C   0  0  0  0  0
  -41.8670    0.6570  -23.9830 C   0  0  0  0  0
  -41.8780   -1.7770  -24.1540 C   0  0  0  0  0
  -37.1880    1.0890  -23.7720 N   0  0  0  0  0
  -35.7450    1.0860  -23.5180 C   0  0  0  0  0
  -35.6100    0.0710  -22.4090 C   0  0  0  0  0
  -34.3320   -0.2840  -22.1710 O   0  0  0  0  0
  -35.2230    2.4840  -23.2710 C   0  0  0  0  0
  -35.2440    3.3800  -24.5720 C   0  0  0  0  0
  -34.3840    2.7430  -25.7020 C   0  0  0  0  0
  -33.4650    3.7810  -26.1970 C   0  0  0  0  0
  -33.6190    5.0020  -25.3050 N   0  0  0  0  0
  -34.7170    4.7130  -24.3150 C   0  0  0  0  0
  -35.1200    5.4880  -23.5290 O   0  0  0  0  0
  -40.3103    4.7498  -26.8742 H   0  0  0  0  0
  -41.3141    4.6051  -28.3278 H   0  0  0  0  0
  -40.7319    6.5359  -29.6405 H   0  0  0  0  0
  -39.0307    7.8122  -30.9473 H   0  0  0  0  0
  -36.6179    7.2068  -30.7397 H   0  0  0  0  0
  -35.8863    5.3369  -29.2579 H   0  0  0  0  0
  -37.5504    4.0434  -27.9915 H   0  0  0  0  0
  -39.8371    0.4116  -27.3375 H   0  0  0  0  0
  -39.6060    1.5166  -24.5879 H   0  0  0  0  0
  -39.3919   -0.9033  -23.8777 H   0  0  0  0  0
  -39.4765   -1.4050  -25.5962 H   0  0  0  0  0
  -41.7196   -0.4277  -25.8471 H   0  0  0  0  0
  -42.9677    0.5724  -23.8410 H   0  0  0  0  0
  -41.7042    1.6424  -24.4722 H   0  0  0  0  0
  -41.4106    0.7052  -22.9688 H   0  0  0  0  0
  -42.9911   -1.7885  -24.1596 H   0  0  0  0  0
  -41.5508   -1.8871  -23.0957 H   0  0  0  0  0
  -41.5488   -2.6923  -24.6953 H   0  0  0  0  0
  -37.8496    1.3653  -23.0331 H   0  0  0  0  0
  -35.1961    0.6593  -24.3860 H   0  0  0  0  0
  -36.1987   -0.8448  -22.6421 H   0  0  0  0  0
  -36.0404    0.4820  -21.4704 H   0  0  0  0  0
  -34.0209   -0.8465  -22.8683 H   0  0  0  0  0
  -34.1761    2.4277  -22.8922 H   0  0  0  0  0
  -35.8231    2.9727  -22.4693 H   0  0  0  0  0
  -36.2960    3.4854  -24.9272 H   0  0  0  0  0
  -35.0294    2.3496  -26.5198 H   0  0  0  0  0
  -33.7850    1.8890  -25.3139 H   0  0  0  0  0
  -33.7083    4.0454  -27.2517 H   0  0  0  0  0
  -32.4115    3.4195  -26.1922 H   0  0  0  0  0
  -33.0991    5.8867  -25.3464 H   0  0  0  0  0
  1  2  1  0  0  0
  1  5  1  0  0  0
  1 30  1  0  0  0
  1 31  1  0  0  0
  2  3  1  0  0  0
  3  4  2  0  0  0
  3 11  1  0  0  0
  5  6  2  0  0  0
  5 10  1  0  0  0
  6  7  1  0  0  0
  6 32  1  0  0  0
  7  8  2  0  0  0
  7 33  1  0  0  0
  8  9  1  0  0  0
  8 34  1  0  0  0
  9 10  2  0  0  0
  9 35  1  0  0  0
 10 36  1  0  0  0
 11 12  1  0  0  0
 11 37  1  0  0  0
 12 13  1  0  0  0
 12 15  1  0  0  0
 12 38  1  0  0  0
 13 14  2  0  0  0
 13 19  1  0  0  0
 15 16  1  0  0  0
 15 39  1  0  0  0
 15 40  1  0  0  0
 16 17  1  0  0  0
 16 18  1  0  0  0
 16 41  1  0  0  0
 17 42  1  0  0  0
 17 43  1  0  0  0
 17 44  1  0  0  0
 18 45  1  0  0  0
 18 46  1  0  0  0
 18 47  1  0  0  0
 19 20  1  0  0  0
 19 48  1  0  0  0
 20 21  1  0  0  0
 20 23  1  0  0  0
 20 49  1  0  0  0
 21 22  1  0  0  0
 21 50  1  0  0  0
 21 51  1  0  0  0
 22 52  1  0  0  0
 23 24  1  0  0  0
 23 53  1  0  0  0
 23 54  1  0  0  0
 24 25  1  0  0  0
 24 28  1  0  0  0
 24 55  1  0  0  0
 25 26  1  0  0  0
 25 56  1  0  0  0
 25 57  1  0  0  0
 26 27  1  0  0  0
 26 58  1  0  0  0
 26 59  1  0  0  0
 27 28  1  0  0  0
 27 60  1  0  0  0
 28 29  2  0  0  0
M  END
$$$$
