@<TRIPOS>MOLECULE
EDO_1_A_402
 10 9 0 0 0
SMALL
NO_CHARGES

@<TRIPOS>ATOM
      1 C1         -7.3690   -1.0420   -5.5380 C.3    402  EDO402      0.0000
      2 O1         -6.5110   -1.0420   -4.4510 O.3    402  EDO402      0.0000
      3 C2         -6.8460   -1.2350   -6.8740 C.3    402  EDO402      0.0000
      4 O2         -7.7120   -1.9020   -7.7170 O.3    402  EDO402      0.0000
      5 H          -7.9754   -0.1105   -5.5100 H      402  EDO402      0.0000
      6 H          -8.1033   -1.8526   -5.3379 H      402  EDO402      0.0000
      7 H          -5.9219   -0.3023   -4.5233 H      402  EDO402      0.0000
      8 H          -5.9185   -1.8432   -6.8138 H      402  EDO402      0.0000
      9 H          -6.5388   -0.2689   -7.3280 H      402  EDO402      0.0000
     10 H          -8.4288   -1.3258   -7.9493 H      402  EDO402      0.0000
@<TRIPOS>BOND
     1     1     2    1
     2     1     3    1
     3     1     5    1
     4     1     6    1
     5     2     7    1
     6     3     4    1
     7     3     8    1
     8     3     9    1
     9     4    10    1

