EDO_1_A_403
  -ISIS-            3D

 10  9  0  0  0  0  0  0  0  0  1 V2000
    5.5330    4.1750   11.8880 C   0  0  0  0  0
    5.5200    3.1650   13.0520 O   0  0  0  0  0
    4.9560    3.7840   10.5150 C   0  0  0  0  0
    5.2910    4.6110    9.2630 O   0  0  0  0  0
    6.5878    4.4879   11.7343 H   0  0  0  0  0
    5.0066    5.0874   12.2393 H   0  0  0  0  0
    6.3296    2.6740   13.0067 H   0  0  0  0  0
    3.8492    3.7351   10.6056 H   0  0  0  0  0
    5.2830    2.7425   10.3055 H   0  0  0  0  0
    4.7646    4.2725    8.5512 H   0  0  0  0  0
  1  2  1  0  0  0
  1  3  1  0  0  0
  1  5  1  0  0  0
  1  6  1  0  0  0
  2  7  1  0  0  0
  3  4  1  0  0  0
  3  8  1  0  0  0
  3  9  1  0  0  0
  4 10  1  0  0  0
M  END
$$$$
