@<TRIPOS>MOLECULE
EDO_1_A_403
 10 9 0 0 0
SMALL
NO_CHARGES

@<TRIPOS>ATOM
      1 C1          5.5330    4.1750   11.8880 C.3    403  EDO403      0.0000
      2 O1          5.5200    3.1650   13.0520 O.3    403  EDO403      0.0000
      3 C2          4.9560    3.7840   10.5150 C.3    403  EDO403      0.0000
      4 O2          5.2910    4.6110    9.2630 O.3    403  EDO403      0.0000
      5 H           6.5878    4.4879   11.7343 H      403  EDO403      0.0000
      6 H           5.0066    5.0874   12.2393 H      403  EDO403      0.0000
      7 H           6.3296    2.6740   13.0067 H      403  EDO403      0.0000
      8 H           3.8492    3.7351   10.6056 H      403  EDO403      0.0000
      9 H           5.2830    2.7425   10.3055 H      403  EDO403      0.0000
     10 H           4.7646    4.2725    8.5512 H      403  EDO403      0.0000
@<TRIPOS>BOND
     1     1     2    1
     2     1     3    1
     3     1     5    1
     4     1     6    1
     5     2     7    1
     6     3     4    1
     7     3     8    1
     8     3     9    1
     9     4    10    1

