EDO_1_A_705
  -ISIS-            3D

 10  9  0  0  0  0  0  0  0  0  1 V2000
   -0.4560   49.7550  -18.2940 C   0  0  0  0  0
   -1.7330   49.2470  -18.6960 O   0  0  0  0  0
   -0.5090   50.1950  -16.8320 C   0  0  0  0  0
   -1.6590   51.0240  -16.6030 O   0  0  0  0  0
   -0.1866   50.6120  -18.9463 H   0  0  0  0  0
    0.3149   48.9716  -18.4434 H   0  0  0  0  0
   -2.3877   49.7755  -18.2529 H   0  0  0  0  0
    0.4197   50.7317  -16.5448 H   0  0  0  0  0
   -0.5842   49.3042  -16.1739 H   0  0  0  0  0
   -1.4052   51.9294  -16.7247 H   0  0  0  0  0
  1  2  1  0  0  0
  1  3  1  0  0  0
  1  5  1  0  0  0
  1  6  1  0  0  0
  2  7  1  0  0  0
  3  4  1  0  0  0
  3  8  1  0  0  0
  3  9  1  0  0  0
  4 10  1  0  0  0
M  END
$$$$
