@<TRIPOS>MOLECULE
EDO_1_A_706
 10 9 0 0 0
SMALL
NO_CHARGES

@<TRIPOS>ATOM
      1 C1          7.4830   36.5120   -7.6280 C.3    706  EDO706      0.0000
      2 O1          7.3240   35.6550   -8.7760 O.3    706  EDO706      0.0000
      3 C2          6.5500   36.0220   -6.5240 C.3    706  EDO706      0.0000
      4 O2          5.2710   35.7210   -7.0930 O.3    706  EDO706      0.0000
      5 H           7.2276   37.5552   -7.9112 H      706  EDO706      0.0000
      6 H           8.5387   36.5019   -7.2850 H      706  EDO706      0.0000
      7 H           7.9010   35.9692   -9.4591 H      706  EDO706      0.0000
      8 H           6.4339   36.7867   -5.7292 H      706  EDO706      0.0000
      9 H           6.9589   35.1061   -6.0477 H      706  EDO706      0.0000
     10 H           5.4383   35.2560   -7.9051 H      706  EDO706      0.0000
@<TRIPOS>BOND
     1     1     2    1
     2     1     3    1
     3     1     5    1
     4     1     6    1
     5     2     7    1
     6     3     4    1
     7     3     8    1
     8     3     9    1
     9     4    10    1

