@<TRIPOS>MOLECULE
ALD_1_B_401
 77 77 0 0 0
SMALL
NO_CHARGES

@<TRIPOS>ATOM
      1 C9        -19.9190   -9.1030   -3.7840 C.2    401  ALD401      0.0000
      2 O31       -20.0730   -9.6140   -2.6840 O.2    401  ALD401      0.0000
      3 O8        -20.4380   -7.7690   -4.0360 O.3    401  ALD401      0.0000
      4 C7        -21.5230   -7.2360   -3.2820 C.3    401  ALD401      0.0000
      5 C3        -22.8850   -7.5800   -3.8540 C.ar   401  ALD401      0.0000
      6 C4        -23.3920   -8.8730   -3.7660 C.ar   401  ALD401      0.0000
      7 C5        -24.6520   -9.1660   -4.2820 C.ar   401  ALD401      0.0000
      8 C6        -25.4120   -8.1680   -4.8860 C.ar   401  ALD401      0.0000
      9 C1        -24.9080   -6.8740   -4.9760 C.ar   401  ALD401      0.0000
     10 C2        -23.6490   -6.5840   -4.4560 C.ar   401  ALD401      0.0000
     11 N10       -19.2870   -9.6690   -4.8030 N.am   401  ALD401      0.0000
     12 C11       -18.7200  -11.0030   -4.7880 C.3    401  ALD401      0.0000
     13 C12       -17.4070  -10.9780   -4.0850 C.2    401  ALD401      0.0000
     14 O32       -16.5040  -10.2440   -4.4580 O.2    401  ALD401      0.0000
     15 C30       -18.6020  -11.3920   -6.2590 C.3    401  ALD401      0.0000
     16 C31       -18.0750  -12.7950   -6.5300 C.3    401  ALD401      0.0000
     17 C32       -19.1380  -13.8520   -6.2850 C.3    401  ALD401      0.0000
     18 C33       -17.5760  -12.8520   -7.9750 C.3    401  ALD401      0.0000
     19 N13       -17.2830  -11.7980   -3.0550 N.am   401  ALD401      0.0000
     20 C14       -15.9840  -11.9830   -2.3950 C.3    401  ALD401      0.0000
     21 C15       -15.0930  -12.8360   -3.2680 C.2    401  ALD401      0.0000
     22 O34       -15.4730  -13.9000   -3.7460 O.2    401  ALD401      0.0000
     23 C24       -16.1720  -12.5300   -0.9860 C.3    401  ALD401      0.0000
     24 C25       -17.0380  -11.6150   -0.1290 C.3    401  ALD401      0.0000
     25 C26       -16.5100  -10.1990    0.0530 C.3    401  ALD401      0.0000
     26 C27       -17.2760  -12.2410    1.2530 C.3    401  ALD401      0.0000
     27 N16       -13.8680  -12.3510   -3.5060 N.am   401  ALD401      0.0000
     28 C17       -12.9260  -13.0310   -4.3810 C.3    401  ALD401      0.0000
     29 C22       -11.7180  -13.4840   -3.5460 C.3    401  ALD401      0.0000
     30 C18       -12.4900  -12.0840   -5.5030 C.3    401  ALD401      0.0000
     31 C19       -13.5190  -11.8530   -6.6060 C.3    401  ALD401      0.0000
     32 C20       -13.8940  -13.1730   -7.2720 C.3    401  ALD401      0.0000
     33 C21       -12.9730  -10.8430   -7.6210 C.3    401  ALD401      0.0000
     34 O33       -10.8720  -14.3610   -4.3020 O.3    401  ALD401      0.0000
     35 H         -21.4102   -6.1333   -3.2321 H      401  ALD401      0.0000
     36 H         -21.4800   -7.5785   -2.2274 H      401  ALD401      0.0000
     37 H         -22.8011   -9.6717   -3.2872 H      401  ALD401      0.0000
     38 H         -25.0494  -10.1929   -4.2107 H      401  ALD401      0.0000
     39 H         -26.4102   -8.4028   -5.2932 H      401  ALD401      0.0000
     40 H         -25.5055   -6.0801   -5.4557 H      401  ALD401      0.0000
     41 H         -23.2643   -5.5524   -4.5302 H      401  ALD401      0.0000
     42 H         -19.1864   -9.0954   -5.6500 H      401  ALD401      0.0000
     43 H         -19.4253  -11.7084   -4.2903 H      401  ALD401      0.0000
     44 H         -17.9258  -10.6581   -6.7582 H      401  ALD401      0.0000
     45 H         -19.5943  -11.2775   -6.7559 H      401  ALD401      0.0000
     46 H         -17.2049  -12.9967   -5.8602 H      401  ALD401      0.0000
     47 H         -18.7518  -14.8748   -6.4942 H      401  ALD401      0.0000
     48 H         -20.0339  -13.7033   -6.9282 H      401  ALD401      0.0000
     49 H         -19.4870  -13.8541   -5.2288 H      401  ALD401      0.0000
     50 H         -17.1501  -13.8507   -8.2203 H      401  ALD401      0.0000
     51 H         -16.7756  -12.1040   -8.1700 H      401  ALD401      0.0000
     52 H         -18.3931  -12.6571   -8.7052 H      401  ALD401      0.0000
     53 H         -18.0904  -12.3489   -2.7359 H      401  ALD401      0.0000
     54 H         -15.4893  -10.9887   -2.2899 H      401  ALD401      0.0000
     55 H         -15.1746  -12.6602   -0.5056 H      401  ALD401      0.0000
     56 H         -16.6315  -13.5440   -1.0427 H      401  ALD401      0.0000
     57 H         -18.0426  -11.5317   -0.6123 H      401  ALD401      0.0000
     58 H         -17.1476   -9.6075    0.7476 H      401  ALD401      0.0000
     59 H         -16.4845   -9.6305   -0.9023 H      401  ALD401      0.0000
     60 H         -15.4784  -10.1930    0.4707 H      401  ALD401      0.0000
     61 H         -17.9719  -11.6300    1.8706 H      401  ALD401      0.0000
     62 H         -16.3288  -12.3451    1.8282 H      401  ALD401      0.0000
     63 H         -17.7257  -13.2561    1.1728 H      401  ALD401      0.0000
     64 H         -13.5821  -11.4587   -3.0797 H      401  ALD401      0.0000
     65 H         -13.3707  -13.9494   -4.8233 H      401  ALD401      0.0000
     66 H         -12.0734  -14.0242   -2.6407 H      401  ALD401      0.0000
     67 H         -11.1314  -12.6075   -3.1957 H      401  ALD401      0.0000
     68 H         -11.5663  -12.4923   -5.9754 H      401  ALD401      0.0000
     69 H         -12.1916  -11.1057   -5.0593 H      401  ALD401      0.0000
     70 H         -14.4411  -11.4160   -6.1507 H      401  ALD401      0.0000
     71 H         -14.5027  -13.0046   -8.1874 H      401  ALD401      0.0000
     72 H         -14.5025  -13.8292   -6.6127 H      401  ALD401      0.0000
     73 H         -12.9976  -13.7514   -7.5887 H      401  ALD401      0.0000
     74 H         -13.7181  -10.6223   -8.4180 H      401  ALD401      0.0000
     75 H         -12.0534  -11.2159   -8.1249 H      401  ALD401      0.0000
     76 H         -12.7180   -9.8718   -7.1408 H      401  ALD401      0.0000
     77 H         -10.1904  -14.6871   -3.7296 H      401  ALD401      0.0000
@<TRIPOS>BOND
     1     1     2    2
     2     1     3    1
     3     1    11    1
     4     3     4    1
     5     4     5    1
     6     4    35    1
     7     4    36    1
     8     5     6   ar
     9     5    10   ar
    10     6     7   ar
    11     6    37    1
    12     7     8   ar
    13     7    38    1
    14     8     9   ar
    15     8    39    1
    16     9    10   ar
    17     9    40    1
    18    10    41    1
    19    11    12    1
    20    11    42    1
    21    12    13    1
    22    12    15    1
    23    12    43    1
    24    13    14    2
    25    13    19    1
    26    15    16    1
    27    15    44    1
    28    15    45    1
    29    16    17    1
    30    16    18    1
    31    16    46    1
    32    17    47    1
    33    17    48    1
    34    17    49    1
    35    18    50    1
    36    18    51    1
    37    18    52    1
    38    19    20    1
    39    19    53    1
    40    20    21    1
    41    20    23    1
    42    20    54    1
    43    21    22    2
    44    21    27    1
    45    23    24    1
    46    23    55    1
    47    23    56    1
    48    24    25    1
    49    24    26    1
    50    24    57    1
    51    25    58    1
    52    25    59    1
    53    25    60    1
    54    26    61    1
    55    26    62    1
    56    26    63    1
    57    27    28    1
    58    27    64    1
    59    28    29    1
    60    28    30    1
    61    28    65    1
    62    29    34    1
    63    29    66    1
    64    29    67    1
    65    30    31    1
    66    30    68    1
    67    30    69    1
    68    31    32    1
    69    31    33    1
    70    31    70    1
    71    32    71    1
    72    32    72    1
    73    32    73    1
    74    33    74    1
    75    33    75    1
    76    33    76    1
    77    34    77    1

