@<TRIPOS>MOLECULE
ALD_1_A_402
 77 77 0 0 0
SMALL
NO_CHARGES

@<TRIPOS>ATOM
      1 C9         20.2330    6.7190  -33.8740 C.2    402  ALD402      0.0000
      2 O31        21.3920    7.0000  -34.1550 O.2    402  ALD402      0.0000
      3 O8         19.3120    6.3330  -34.9180 O.3    402  ALD402      0.0000
      4 C7         19.7520    6.4470  -36.2680 C.3    402  ALD402      0.0000
      5 C3         19.5250    7.8250  -36.8640 C.ar   402  ALD402      0.0000
      6 C4         20.5760    8.7240  -37.0130 C.ar   402  ALD402      0.0000
      7 C5         20.3580    9.9720  -37.5910 C.ar   402  ALD402      0.0000
      8 C6         19.0870   10.3220  -38.0360 C.ar   402  ALD402      0.0000
      9 C1         18.0370    9.4190  -37.8970 C.ar   402  ALD402      0.0000
     10 C2         18.2580    8.1730  -37.3120 C.ar   402  ALD402      0.0000
     11 N10        19.7230    6.7420  -32.6530 N.am   402  ALD402      0.0000
     12 C11        20.5210    7.0250  -31.4680 C.3    402  ALD402      0.0000
     13 C12        20.7060    5.7930  -30.6740 C.2    402  ALD402      0.0000
     14 O32        19.7600    5.1910  -30.1970 O.2    402  ALD402      0.0000
     15 C30        19.7840    8.1000  -30.7050 C.3    402  ALD402      0.0000
     16 C31        20.5410    8.6300  -29.5030 C.3    402  ALD402      0.0000
     17 C32        21.7860    9.4000  -29.8960 C.3    402  ALD402      0.0000
     18 C33        19.5470    9.4980  -28.7250 C.3    402  ALD402      0.0000
     19 N13        21.9640    5.4110  -30.5130 N.am   402  ALD402      0.0000
     20 C14        22.2930    4.2660  -29.6680 C.3    402  ALD402      0.0000
     21 C15        22.1080    4.6250  -28.2080 C.2    402  ALD402      0.0000
     22 O34        22.7010    5.5620  -27.7190 O.2    402  ALD402      0.0000
     23 C24        23.7040    3.8010  -29.9730 C.3    402  ALD402      0.0000
     24 C25        23.8860    3.3530  -31.4120 C.3    402  ALD402      0.0000
     25 C26        23.0390    2.1240  -31.7160 C.3    402  ALD402      0.0000
     26 C27        25.3580    3.1020  -31.7540 C.3    402  ALD402      0.0000
     27 N16        21.2720    3.8820  -27.4960 N.am   402  ALD402      0.0000
     28 C17        20.9560    4.1500  -26.0820 C.3    402  ALD402      0.0000
     29 C22        21.5920    3.0090  -25.2510 C.3    402  ALD402      0.0000
     30 C18        19.4530    4.1870  -25.7690 C.3    402  ALD402      0.0000
     31 C19        18.6420    5.3660  -26.3140 C.3    402  ALD402      0.0000
     32 C20        19.1580    6.6950  -25.7860 C.3    402  ALD402      0.0000
     33 C21        17.1480    5.1620  -25.9700 C.3    402  ALD402      0.0000
     34 O33        21.3120    3.1600  -23.8430 O.3    402  ALD402      0.0000
     35 H          19.1972    5.7072  -36.8826 H      402  ALD402      0.0000
     36 H          20.8173    6.1564  -36.3735 H      402  ALD402      0.0000
     37 H          21.5900    8.4557  -36.6708 H      402  ALD402      0.0000
     38 H          21.1950   10.6830  -37.6983 H      402  ALD402      0.0000
     39 H          18.9127   11.3094  -38.4965 H      402  ALD402      0.0000
     40 H          17.0273    9.6904  -38.2500 H      402  ALD402      0.0000
     41 H          17.4167    7.4664  -37.2088 H      402  ALD402      0.0000
     42 H          18.7285    6.5098  -32.5358 H      402  ALD402      0.0000
     43 H          21.5098    7.4379  -31.7715 H      402  ALD402      0.0000
     44 H          18.7972    7.6962  -30.3776 H      402  ALD402      0.0000
     45 H          19.5552    8.9475  -31.3937 H      402  ALD402      0.0000
     46 H          20.8392    7.7777  -28.8457 H      402  ALD402      0.0000
     47 H          22.2760    9.8567  -29.0070 H      402  ALD402      0.0000
     48 H          21.5599   10.2289  -30.6033 H      402  ALD402      0.0000
     49 H          22.5524    8.7532  -30.3760 H      402  ALD402      0.0000
     50 H          20.0096    9.9120  -27.8010 H      402  ALD402      0.0000
     51 H          18.6507    8.9232  -28.4007 H      402  ALD402      0.0000
     52 H          19.1880   10.3643  -29.3247 H      402  ALD402      0.0000
     53 H          22.7257    5.9431  -30.9538 H      402  ALD402      0.0000
     54 H          21.6005    3.4238  -29.8988 H      402  ALD402      0.0000
     55 H          23.9750    2.9658  -29.2861 H      402  ALD402      0.0000
     56 H          24.4173    4.6280  -29.7483 H      402  ALD402      0.0000
     57 H          23.5420    4.1719  -32.0900 H      402  ALD402      0.0000
     58 H          23.2330    1.7430  -32.7437 H      402  ALD402      0.0000
     59 H          21.9477    2.3293  -31.6676 H      402  ALD402      0.0000
     60 H          23.2536    1.2859  -31.0158 H      402  ALD402      0.0000
     61 H          25.4907    2.8158  -32.8215 H      402  ALD402      0.0000
     62 H          25.7905    2.2834  -31.1363 H      402  ALD402      0.0000
     63 H          25.9804    4.0089  -31.5829 H      402  ALD402      0.0000
     64 H          20.7910    3.0942  -27.9515 H      402  ALD402      0.0000
     65 H          21.4139    5.1052  -25.7387 H      402  ALD402      0.0000
     66 H          22.6934    3.0028  -25.4057 H      402  ALD402      0.0000
     67 H          21.2077    2.0232  -25.5924 H      402  ALD402      0.0000
     68 H          19.3130    4.1754  -24.6635 H      402  ALD402      0.0000
     69 H          18.9980    3.2383  -26.1389 H      402  ALD402      0.0000
     70 H          18.7382    5.3732  -27.4274 H      402  ALD402      0.0000
     71 H          18.5213    7.5416  -26.1271 H      402  ALD402      0.0000
     72 H          20.1892    6.9176  -26.1376 H      402  ALD402      0.0000
     73 H          19.1703    6.7253  -24.6737 H      402  ALD402      0.0000
     74 H          16.5196    5.9797  -26.3889 H      402  ALD402      0.0000
     75 H          16.9746    5.1430  -24.8708 H      402  ALD402      0.0000
     76 H          16.7556    4.2072  -26.3862 H      402  ALD402      0.0000
     77 H          21.7993    2.4987  -23.3703 H      402  ALD402      0.0000
@<TRIPOS>BOND
     1     1     2    2
     2     1     3    1
     3     1    11    1
     4     3     4    1
     5     4     5    1
     6     4    35    1
     7     4    36    1
     8     5     6   ar
     9     5    10   ar
    10     6     7   ar
    11     6    37    1
    12     7     8   ar
    13     7    38    1
    14     8     9   ar
    15     8    39    1
    16     9    10   ar
    17     9    40    1
    18    10    41    1
    19    11    12    1
    20    11    42    1
    21    12    13    1
    22    12    15    1
    23    12    43    1
    24    13    14    2
    25    13    19    1
    26    15    16    1
    27    15    44    1
    28    15    45    1
    29    16    17    1
    30    16    18    1
    31    16    46    1
    32    17    47    1
    33    17    48    1
    34    17    49    1
    35    18    50    1
    36    18    51    1
    37    18    52    1
    38    19    20    1
    39    19    53    1
    40    20    21    1
    41    20    23    1
    42    20    54    1
    43    21    22    2
    44    21    27    1
    45    23    24    1
    46    23    55    1
    47    23    56    1
    48    24    25    1
    49    24    26    1
    50    24    57    1
    51    25    58    1
    52    25    59    1
    53    25    60    1
    54    26    61    1
    55    26    62    1
    56    26    63    1
    57    27    28    1
    58    27    64    1
    59    28    29    1
    60    28    30    1
    61    28    65    1
    62    29    34    1
    63    29    66    1
    64    29    67    1
    65    30    31    1
    66    30    68    1
    67    30    69    1
    68    31    32    1
    69    31    33    1
    70    31    70    1
    71    32    71    1
    72    32    72    1
    73    32    73    1
    74    33    74    1
    75    33    75    1
    76    33    76    1
    77    34    77    1

