@<TRIPOS>MOLECULE
EDO_1_A_404
 10 9 0 0 0
SMALL
NO_CHARGES

@<TRIPOS>ATOM
      1 C1         23.7470   -2.7200  -10.2410 C.3    404  EDO404      0.0000
      2 O1         25.1300   -2.3030  -10.3020 O.3    404  EDO404      0.0000
      3 C2         23.5650   -3.9980  -11.0530 C.3    404  EDO404      0.0000
      4 O2         22.9670   -5.0380  -10.2690 O.3    404  EDO404      0.0000
      5 H          23.0974   -1.9117  -10.6379 H      404  EDO404      0.0000
      6 H          23.4622   -2.8794   -9.1799 H      404  EDO404      0.0000
      7 H          25.2144   -1.4911   -9.8200 H      404  EDO404      0.0000
      8 H          24.5341   -4.3559  -11.4600 H      404  EDO404      0.0000
      9 H          22.9135   -3.8002  -11.9293 H      404  EDO404      0.0000
     10 H          23.6415   -5.4140   -9.7185 H      404  EDO404      0.0000
@<TRIPOS>BOND
     1     1     2    1
     2     1     3    1
     3     1     5    1
     4     1     6    1
     5     2     7    1
     6     3     4    1
     7     3     8    1
     8     3     9    1
     9     4    10    1

