@<TRIPOS>MOLECULE
EDO_1_B_402
 10 9 0 0 0
SMALL
NO_CHARGES

@<TRIPOS>ATOM
      1 C1         -3.8680  -18.0620  -13.4080 C.3    402  EDO402      0.0000
      2 O1         -3.8270  -16.8580  -14.1790 O.3    402  EDO402      0.0000
      3 C2         -5.2720  -18.6560  -13.4490 C.3    402  EDO402      0.0000
      4 O2         -6.2230  -17.7060  -12.9490 O.3    402  EDO402      0.0000
      5 H          -3.5642  -17.8415  -12.3633 H      402  EDO402      0.0000
      6 H          -3.1295  -18.7798  -13.8204 H      402  EDO402      0.0000
      7 H          -4.6263  -16.3830  -13.9812 H      402  EDO402      0.0000
      8 H          -5.3204  -19.5937  -12.8556 H      402  EDO402      0.0000
      9 H          -5.5459  -18.9189  -14.4919 H      402  EDO402      0.0000
     10 H          -6.2950  -17.8179  -12.0101 H      402  EDO402      0.0000
@<TRIPOS>BOND
     1     1     2    1
     2     1     3    1
     3     1     5    1
     4     1     6    1
     5     2     7    1
     6     3     4    1
     7     3     8    1
     8     3     9    1
     9     4    10    1

