@<TRIPOS>MOLECULE
EDO_1_A_407
 10 9 0 0 0
SMALL
NO_CHARGES

@<TRIPOS>ATOM
      1 C1         -3.3660  -12.7580  -15.4360 C.3    407  EDO407      0.0000
      2 O1         -3.3850  -12.2510  -14.0940 O.3    407  EDO407      0.0000
      3 C2         -3.7560  -14.2320  -15.4060 C.3    407  EDO407      0.0000
      4 O2         -5.0960  -14.3590  -14.9140 O.3    407  EDO407      0.0000
      5 H          -2.3467  -12.6415  -15.8612 H      407  EDO407      0.0000
      6 H          -4.0628  -12.1728  -16.0720 H      407  EDO407      0.0000
      7 H          -3.1215  -11.3401  -14.1131 H      407  EDO407      0.0000
      8 H          -3.0714  -14.8074  -14.7495 H      407  EDO407      0.0000
      9 H          -3.6906  -14.6758  -16.4216 H      407  EDO407      0.0000
     10 H          -5.6774  -13.8628  -15.4748 H      407  EDO407      0.0000
@<TRIPOS>BOND
     1     1     2    1
     2     1     3    1
     3     1     5    1
     4     1     6    1
     5     2     7    1
     6     3     4    1
     7     3     8    1
     8     3     9    1
     9     4    10    1

