EDO_1_A_406
  -ISIS-            3D

 10  9  0  0  0  0  0  0  0  0  1 V2000
   10.8010   -1.1280  -41.1610 C   0  0  0  0  0
   10.3330   -0.1120  -40.2920 O   0  0  0  0  0
    9.6710   -1.6520  -42.0320 C   0  0  0  0  0
    9.9750   -3.0140  -42.3700 O   0  0  0  0  0
   11.2433   -1.9455  -40.5520 H   0  0  0  0  0
   11.6184   -0.7212  -41.7914 H   0  0  0  0  0
    9.8712   -0.5199  -39.5717 H   0  0  0  0  0
    9.5337   -1.0366  -42.9453 H   0  0  0  0  0
    8.7098   -1.6430  -41.4776 H   0  0  0  0  0
   10.5499   -3.0139  -43.1245 H   0  0  0  0  0
  1  2  1  0  0  0
  1  3  1  0  0  0
  1  5  1  0  0  0
  1  6  1  0  0  0
  2  7  1  0  0  0
  3  4  1  0  0  0
  3  8  1  0  0  0
  3  9  1  0  0  0
  4 10  1  0  0  0
M  END
$$$$
