EDO_1_A_408
  -ISIS-            3D

 10  9  0  0  0  0  0  0  0  0  1 V2000
   22.2410   -8.9460   -8.4260 C   0  0  0  0  0
   22.9210   -7.7230   -8.7230 O   0  0  0  0  0
   21.3780   -9.2800   -9.6350 C   0  0  0  0  0
   22.2780   -9.3700  -10.7450 O   0  0  0  0  0
   21.6196   -8.8116   -7.5173 H   0  0  0  0  0
   22.9783   -9.7493   -8.2177 H   0  0  0  0  0
   23.3269   -7.8434   -9.5743 H   0  0  0  0  0
   20.6190   -8.4908   -9.8186 H   0  0  0  0  0
   20.8503  -10.2457   -9.4901 H   0  0  0  0  0
   21.7722   -9.5848  -11.5172 H   0  0  0  0  0
  1  2  1  0  0  0
  1  3  1  0  0  0
  1  5  1  0  0  0
  1  6  1  0  0  0
  2  7  1  0  0  0
  3  4  1  0  0  0
  3  8  1  0  0  0
  3  9  1  0  0  0
  4 10  1  0  0  0
M  END
$$$$
