@<TRIPOS>MOLECULE
5ZE_1_A_201
 18 18 0 0 0
SMALL
NO_CHARGES

@<TRIPOS>ATOM
      1 C1        -47.1650  -28.7950    5.9070 C.3    201  5ZE201      0.0000
      2 C2        -48.5990  -28.9220    5.3920 C.ar   201  5ZE201      0.0000
      3 C3        -49.6720  -29.2240    6.2270 C.ar   201  5ZE201      0.0000
      4 C4        -50.9330  -29.3220    5.6550 C.ar   201  5ZE201      0.0000
      5 C5        -52.1730  -29.6640    6.4700 C.3    201  5ZE201      0.0000
      6 N6        -51.0760  -29.0970    4.3700 N.ar   201  5ZE201      0.0000
      7 C7        -50.0480  -28.8030    3.6220 C.ar   201  5ZE201      0.0000
      8 N8        -50.2180  -28.5670    2.2020 N.3    201  5ZE201      0.0000
      9 N9        -48.8480  -28.7140    4.1320 N.ar   201  5ZE201      0.0000
     10 H         -46.4558  -28.5494    5.0858 H      201  5ZE201      0.0000
     11 H         -46.8247  -29.7460    6.3735 H      201  5ZE201      0.0000
     12 H         -47.0871  -27.9910    6.6721 H      201  5ZE201      0.0000
     13 H         -49.5222  -29.3902    7.3056 H      201  5ZE201      0.0000
     14 H         -53.0862  -29.6957    5.8354 H      201  5ZE201      0.0000
     15 H         -52.3449  -28.9092    7.2691 H      201  5ZE201      0.0000
     16 H         -52.0674  -30.6588    6.9568 H      201  5ZE201      0.0000
     17 H         -51.1805  -28.6482    1.8519 H      201  5ZE201      0.0000
     18 H         -49.3596  -28.3416    1.6845 H      201  5ZE201      0.0000
@<TRIPOS>BOND
     1     1     2    1
     2     1    10    1
     3     1    11    1
     4     1    12    1
     5     2     3   ar
     6     2     9   ar
     7     3     4   ar
     8     3    13    1
     9     4     5    1
    10     4     6   ar
    11     5    14    1
    12     5    15    1
    13     5    16    1
    14     6     7   ar
    15     7     8    1
    16     7     9   ar
    17     8    17    1
    18     8    18    1

