A2R_1_A_202
  -ISIS-            3D

 62 65  0  0  0  0  0  0  0  0  1 V2000
   19.4560   40.6930   34.0770 O   0  0  0  0  0
   20.6410   40.0680   34.8030 P   0  0  0  0  0
   20.3770   38.6190   35.1900 O   0  0  0  0  0
   21.0770   40.9060   35.9700 O   0  0  0  0  0
   21.8600   39.9610   33.6800 O   0  0  0  0  0
   22.6680   41.1290   33.4970 C   0  0  0  0  0
   24.1440   40.7710   33.3930 C   0  0  0  0  0
   24.8800   40.5820   34.6500 N   0  0  0  0  0
   26.1300   40.0310   34.7500 C   0  0  0  0  0
   26.8780   39.5410   33.7440 N   0  0  0  0  0
   28.0340   39.0700   34.2130 C   0  0  0  0  0
   28.5070   39.0600   35.4690 N   0  0  0  0  0
   27.7290   39.5740   36.4590 C   0  0  0  0  0
   28.1740   39.5540   37.7180 N   0  0  0  0  0
   26.4700   40.0840   36.0870 C   0  0  0  0  0
   25.4470   40.6620   36.8170 N   0  0  0  0  0
   24.5160   40.9440   35.9270 C   0  0  0  0  0
   24.7450   41.8480   32.7120 O   0  0  0  0  0
   22.4350   41.7570   32.1210 C   0  0  0  0  0
   22.2350   40.8030   31.0750 O   0  0  0  0  0
   23.7540   42.5160   31.8860 C   0  0  0  0  0
   23.7580   43.9920   32.2060 C   0  0  0  0  0
   23.0230   44.2250   33.4320 O   0  0  0  0  0
   23.3430   45.4490   34.4340 P   0  0  0  0  0
   24.6080   45.1710   35.1760 O   0  0  0  0  0
   22.1000   45.7350   35.1970 O   0  0  0  0  0
   23.6550   46.6460   33.4160 O   0  0  0  0  0
   22.7040   47.6510   32.6140 P   0  0  0  0  0
   23.5190   48.3610   31.5600 O   0  0  0  0  0
   21.4610   46.9170   32.2300 O   0  0  0  0  0
   22.3400   48.6810   33.7840 O   0  0  0  0  0
   23.3220   49.6290   34.3000 C   0  0  0  0  0
   22.9050   50.1150   35.6780 C   0  0  0  0  0
   23.7860   51.2170   36.3040 C   0  0  0  0  0
   22.9460   52.2160   36.8630 O   0  0  0  0  0
   24.5560   50.4460   37.3720 C   0  0  0  0  0
   25.1150   51.2180   38.4060 O   0  0  0  0  0
   23.4280   49.5380   37.8410 C   0  0  0  0  0
   22.9290   49.0160   36.6260 O   0  0  0  0  0
   23.9420   48.5800   38.6120 O   0  0  0  0  0
   22.5131   41.8930   34.2838 H   0  0  0  0  0
   24.2628   39.8419   32.7945 H   0  0  0  0  0
   28.7094   38.6395   33.4535 H   0  0  0  0  0
   23.6085   41.4430   36.2840 H   0  0  0  0  0
   21.5707   42.4530   32.1448 H   0  0  0  0  0
   21.6175   40.1545   31.3914 H   0  0  0  0  0
   24.0550   42.3985   30.8222 H   0  0  0  0  0
   23.2665   44.5569   31.3864 H   0  0  0  0  0
   24.7999   44.3659   32.2878 H   0  0  0  0  0
   23.3954   50.4869   33.5994 H   0  0  0  0  0
   24.3253   49.1573   34.3566 H   0  0  0  0  0
   21.8614   50.4913   35.6015 H   0  0  0  0  0
   24.4837   51.6641   35.5655 H   0  0  0  0  0
   22.7377   52.8523   36.1922 H   0  0  0  0  0
   25.3582   49.8436   36.8956 H   0  0  0  0  0
   24.5104   51.9317   38.5752 H   0  0  0  0  0
   22.6410   50.1020   38.3814 H   0  0  0  0  0
   23.2614   47.9588   38.8351 H   0  0  0  0  0
   27.5606   39.9483   38.4425 H   0  0  0  0  0
   29.1053   39.1398   37.8485 H   0  0  0  0  0
   24.8265   46.0172   35.8953 H   0  0  0  0  0
   21.7421   40.3032   36.6589 H   0  0  0  0  0
  1  2  2  0  0  0
  2  3  2  0  0  0
  2  4  1  0  0  0
  2  5  1  0  0  0
  5  6  1  0  0  0
  6  7  1  0  0  0
  6 19  1  0  0  0
  6 41  1  0  0  0
  7  8  1  0  0  0
  7 18  1  0  0  0
  7 42  1  0  0  0
  8  9  1  0  0  0
  8 17  1  0  0  0
  9 10  2  0  0  0
  9 15  1  0  0  0
 10 11  1  0  0  0
 11 12  2  0  0  0
 11 43  1  0  0  0
 12 13  1  0  0  0
 13 14  1  0  0  0
 13 15  2  0  0  0
 14 59  1  0  0  0
 14 60  1  0  0  0
 15 16  1  0  0  0
 16 17  2  0  0  0
 17 44  1  0  0  0
 18 21  1  0  0  0
 19 20  1  0  0  0
 19 21  1  0  0  0
 19 45  1  0  0  0
 20 46  1  0  0  0
 21 22  1  0  0  0
 21 47  1  0  0  0
 22 23  1  0  0  0
 22 48  1  0  0  0
 22 49  1  0  0  0
 23 24  1  0  0  0
 24 25  1  0  0  0
 24 26  2  0  0  0
 24 27  1  0  0  0
 27 28  1  0  0  0
 28 29  2  0  0  0
 28 30  2  0  0  0
 28 31  1  0  0  0
 31 32  1  0  0  0
 32 33  1  0  0  0
 32 50  1  0  0  0
 32 51  1  0  0  0
 33 34  1  0  0  0
 33 39  1  0  0  0
 33 52  1  0  0  0
 34 35  1  0  0  0
 34 36  1  0  0  0
 34 53  1  0  0  0
 35 54  1  0  0  0
 36 37  1  0  0  0
 36 38  1  0  0  0
 36 55  1  0  0  0
 37 56  1  0  0  0
 38 39  1  0  0  0
 38 40  1  0  0  0
 38 57  1  0  0  0
 40 58  1  0  0  0
 25 61  1  0  0  0
  4 62  1  0  0  0
M  END
$$$$
