EDO_1_A_203
  -ISIS-            3D

 10  9  0  0  0  0  0  0  0  0  1 V2000
   25.5980   63.6640   22.9520 C   0  0  0  0  0
   25.9540   63.1960   24.2300 O   0  0  0  0  0
   26.0560   62.7480   21.9070 C   0  0  0  0  0
   25.1550   61.6810   21.7230 O   0  0  0  0  0
   26.0402   64.6729   22.8021 H   0  0  0  0  0
   24.4979   63.8032   22.9078 H   0  0  0  0  0
   26.8405   63.4709   24.4246 H   0  0  0  0  0
   27.0725   62.3546   22.1181 H   0  0  0  0  0
   26.1312   63.2907   20.9409 H   0  0  0  0  0
   25.0702   61.2349   22.5566 H   0  0  0  0  0
  1  2  1  0  0  0
  1  3  1  0  0  0
  1  5  1  0  0  0
  1  6  1  0  0  0
  2  7  1  0  0  0
  3  4  1  0  0  0
  3  8  1  0  0  0
  3  9  1  0  0  0
  4 10  1  0  0  0
M  END
$$$$
