@<TRIPOS>MOLECULE
EDO_1_A_203
 10 9 0 0 0
SMALL
NO_CHARGES

@<TRIPOS>ATOM
      1 C1         25.5980   63.6640   22.9520 C.3    203  EDO203      0.0000
      2 O1         25.9540   63.1960   24.2300 O.3    203  EDO203      0.0000
      3 C2         26.0560   62.7480   21.9070 C.3    203  EDO203      0.0000
      4 O2         25.1550   61.6810   21.7230 O.3    203  EDO203      0.0000
      5 H          26.0402   64.6729   22.8021 H      203  EDO203      0.0000
      6 H          24.4979   63.8032   22.9078 H      203  EDO203      0.0000
      7 H          26.8405   63.4709   24.4246 H      203  EDO203      0.0000
      8 H          27.0725   62.3546   22.1181 H      203  EDO203      0.0000
      9 H          26.1312   63.2907   20.9409 H      203  EDO203      0.0000
     10 H          25.0702   61.2349   22.5566 H      203  EDO203      0.0000
@<TRIPOS>BOND
     1     1     2    1
     2     1     3    1
     3     1     5    1
     4     1     6    1
     5     2     7    1
     6     3     4    1
     7     3     8    1
     8     3     9    1
     9     4    10    1

