EDO_1_A_204
  -ISIS-            3D

 10  9  0  0  0  0  0  0  0  0  1 V2000
   42.9430   50.6810   18.9370 C   0  0  0  0  0
   44.2050   50.5590   19.5410 O   0  0  0  0  0
   42.6080   49.4980   18.1430 C   0  0  0  0  0
   42.6350   48.3410   18.9440 O   0  0  0  0  0
   42.9136   51.5978   18.3099 H   0  0  0  0  0
   42.1867   50.8304   19.7363 H   0  0  0  0  0
   44.8697   50.8322   18.9223 H   0  0  0  0  0
   43.3182   49.3730   17.2983 H   0  0  0  0  0
   41.5973   49.5981   17.6955 H   0  0  0  0  0
   43.4061   48.4044   19.4964 H   0  0  0  0  0
  1  2  1  0  0  0
  1  3  1  0  0  0
  1  5  1  0  0  0
  1  6  1  0  0  0
  2  7  1  0  0  0
  3  4  1  0  0  0
  3  8  1  0  0  0
  3  9  1  0  0  0
  4 10  1  0  0  0
M  END
$$$$
