@<TRIPOS>MOLECULE
EDO_1_A_204
 10 9 0 0 0
SMALL
NO_CHARGES

@<TRIPOS>ATOM
      1 C1         42.9430   50.6810   18.9370 C.3    204  EDO204      0.0000
      2 O1         44.2050   50.5590   19.5410 O.3    204  EDO204      0.0000
      3 C2         42.6080   49.4980   18.1430 C.3    204  EDO204      0.0000
      4 O2         42.6350   48.3410   18.9440 O.3    204  EDO204      0.0000
      5 H          42.9136   51.5978   18.3099 H      204  EDO204      0.0000
      6 H          42.1867   50.8304   19.7363 H      204  EDO204      0.0000
      7 H          44.8697   50.8322   18.9223 H      204  EDO204      0.0000
      8 H          43.3182   49.3730   17.2983 H      204  EDO204      0.0000
      9 H          41.5973   49.5981   17.6955 H      204  EDO204      0.0000
     10 H          43.4061   48.4044   19.4964 H      204  EDO204      0.0000
@<TRIPOS>BOND
     1     1     2    1
     2     1     3    1
     3     1     5    1
     4     1     6    1
     5     2     7    1
     6     3     4    1
     7     3     8    1
     8     3     9    1
     9     4    10    1

