@<TRIPOS>MOLECULE
DMS_1_A_401
 10 9 0 0 0
SMALL
NO_CHARGES

@<TRIPOS>ATOM
      1 S           6.8100  -27.9990   21.5840 S.o    401  DMS401      0.0000
      2 O           7.6090  -27.0550   22.4310 O.2    401  DMS401      0.0000
      3 C1          5.5560  -28.6830   22.6420 C.3    401  DMS401      0.0000
      4 C2          5.7660  -26.9740   20.5840 C.3    401  DMS401      0.0000
      5 H           4.8388  -29.2773   22.0394 H      401  DMS401      0.0000
      6 H           5.0129  -27.8734   23.1708 H      401  DMS401      0.0000
      7 H           6.0318  -29.3483   23.3913 H      401  DMS401      0.0000
      8 H           5.0414  -27.6038   20.0282 H      401  DMS401      0.0000
      9 H           6.3887  -26.4170   19.8544 H      401  DMS401      0.0000
     10 H           5.2152  -26.2484   21.2166 H      401  DMS401      0.0000
@<TRIPOS>BOND
     1     1     2    2
     2     1     3    1
     3     1     4    1
     4     3     5    1
     5     3     6    1
     6     3     7    1
     7     4     8    1
     8     4     9    1
     9     4    10    1

