DMS_1_A_402
  -ISIS-            3D

 10  9  0  0  0  0  0  0  0  0  1 V2000
    6.1220   -1.2140   -6.2130 S   0  0  0  0  0
    7.0700   -0.7970   -7.2750 O   0  0  0  0  0
    7.0630   -1.1850   -4.6920 C   0  0  0  0  0
    5.9520   -2.9760   -6.3310 C   0  0  0  0  0
    6.4597   -1.6185   -3.8686 H   0  0  0  0  0
    7.3141   -0.1345   -4.4376 H   0  0  0  0  0
    8.0028   -1.7637   -4.8077 H   0  0  0  0  0
    5.3740   -3.3577   -5.4651 H   0  0  0  0  0
    6.9498   -3.4612   -6.3528 H   0  0  0  0  0
    5.4077   -3.2296   -7.2636 H   0  0  0  0  0
  1  2  2  0  0  0
  1  3  1  0  0  0
  1  4  1  0  0  0
  3  5  1  0  0  0
  3  6  1  0  0  0
  3  7  1  0  0  0
  4  8  1  0  0  0
  4  9  1  0  0  0
  4 10  1  0  0  0
M  END
$$$$
