@<TRIPOS>MOLECULE
DMS_1_A_403
 10 9 0 0 0
SMALL
NO_CHARGES

@<TRIPOS>ATOM
      1 S           2.3150  -18.9990    8.1080 S.o    403  DMS403      0.0000
      2 O           3.6250  -18.7130    8.8080 O.2    403  DMS403      0.0000
      3 C1          1.0780  -18.1070    9.0280 C.3    403  DMS403      0.0000
      4 C2          1.8430  -20.6340    8.6320 C.3    403  DMS403      0.0000
      5 H           0.0665  -18.3924    8.6731 H      403  DMS403      0.0000
      6 H           1.2188  -17.0182    8.8691 H      403  DMS403      0.0000
      7 H           1.1665  -18.3279   10.1114 H      403  DMS403      0.0000
      8 H           0.8125  -20.8568    8.2872 H      403  DMS403      0.0000
      9 H           1.8894  -20.7153    9.7373 H      403  DMS403      0.0000
     10 H           2.5374  -21.3753    8.1863 H      403  DMS403      0.0000
@<TRIPOS>BOND
     1     1     2    2
     2     1     3    1
     3     1     4    1
     4     3     5    1
     5     3     6    1
     6     3     7    1
     7     4     8    1
     8     4     9    1
     9     4    10    1

