DMS_1_A_401
  -ISIS-            3D

 10  9  0  0  0  0  0  0  0  0  1 V2000
    6.8100  -27.9990   21.5840 S   0  0  0  0  0
    7.6090  -27.0550   22.4310 O   0  0  0  0  0
    5.5560  -28.6830   22.6420 C   0  0  0  0  0
    5.7660  -26.9740   20.5840 C   0  0  0  0  0
    4.8388  -29.2773   22.0394 H   0  0  0  0  0
    5.0129  -27.8734   23.1708 H   0  0  0  0  0
    6.0318  -29.3483   23.3913 H   0  0  0  0  0
    5.0414  -27.6038   20.0282 H   0  0  0  0  0
    6.3887  -26.4170   19.8544 H   0  0  0  0  0
    5.2152  -26.2484   21.2166 H   0  0  0  0  0
  1  2  2  0  0  0
  1  3  1  0  0  0
  1  4  1  0  0  0
  3  5  1  0  0  0
  3  6  1  0  0  0
  3  7  1  0  0  0
  4  8  1  0  0  0
  4  9  1  0  0  0
  4 10  1  0  0  0
M  END
$$$$
