@<TRIPOS>MOLECULE
6P3_1_A_201
 23 24 0 0 0
SMALL
NO_CHARGES

@<TRIPOS>ATOM
      1 C1          9.9670    5.7610   19.5890 C.ar   201  6P3201      0.0000
      2 C2          9.0260    6.6170   19.0640 C.ar   201  6P3201      0.0000
      3 C3          8.7930    7.8410   19.6690 C.ar   201  6P3201      0.0000
      4 C4          9.5050    8.2450   20.7860 C.ar   201  6P3201      0.0000
      5 C5         10.4660    7.4100   21.2940 C.ar   201  6P3201      0.0000
      6 C6         10.6980    6.1900   20.6990 C.ar   201  6P3201      0.0000
      7 C12        10.2730    4.4040   18.9420 C.ar   201  6P3201      0.0000
      8 N13        10.2220    4.2480   17.6300 N.ar   201  6P3201      0.0000
      9 C14        10.5060    3.1090   17.0240 C.ar   201  6P3201      0.0000
     10 C15        10.8460    1.9890   17.7780 C.ar   201  6P3201      0.0000
     11 C16        10.9140    2.1000   19.1490 C.ar   201  6P3201      0.0000
     12 C17        10.6130    3.3160   19.7170 C.ar   201  6P3201      0.0000
     13 C21        11.2120    0.6560   17.1180 C.2    201  6P3201      0.0000
     14 O22        11.4840    0.6070   15.8880 O.co2  201  6P3201     -0.5000
     15 O23        11.3470   -0.3900   17.7990 O.co2  201  6P3201     -0.5000
     16 H           8.4523    6.3284   18.1674 H      201  6P3201      0.0000
     17 H           8.0239    8.5120   19.2483 H      201  6P3201      0.0000
     18 H           9.3048    9.2234   21.2544 H      201  6P3201      0.0000
     19 H          11.0535    7.7165   22.1764 H      201  6P3201      0.0000
     20 H          11.4884    5.5455   21.1196 H      201  6P3201      0.0000
     21 H          10.4577    3.0696   15.9239 H      201  6P3201      0.0000
     22 H          11.1975    1.2452   19.7847 H      201  6P3201      0.0000
     23 H          10.6493    3.4092   20.8148 H      201  6P3201      0.0000
@<TRIPOS>BOND
     1     1     2   ar
     2     1     6   ar
     3     1     7    1
     4     2     3   ar
     5     2    16    1
     6     3     4   ar
     7     3    17    1
     8     4     5   ar
     9     4    18    1
    10     5     6   ar
    11     5    19    1
    12     6    20    1
    13     7     8   ar
    14     7    12   ar
    15     8     9   ar
    16     9    10   ar
    17     9    21    1
    18    10    11   ar
    19    10    13    1
    20    11    12   ar
    21    11    22    1
    22    12    23    1
    23    13    14   ar
    24    13    15   ar

