@<TRIPOS>MOLECULE
3X5_1_A_401
 69 73 0 0 0
SMALL
NO_CHARGES

@<TRIPOS>ATOM
      1 O1        -21.0300  -44.7730    1.3920 O.2    401  3X5401      0.0000
      2 C24       -20.5690  -43.6450    1.4530 C.2    401  3X5401      0.0000
      3 C23       -21.3940  -42.5090    2.0100 C.3    401  3X5401      0.0000
      4 C25       -20.4920  -41.5640    2.7940 C.3    401  3X5401      0.0000
      5 C26       -19.8000  -40.6210    1.8400 C.ar   401  3X5401      0.0000
      6 N3        -18.5780  -40.0730    2.0050 N.ar   401  3X5401      0.0000
      7 C28       -18.3200  -39.2900    0.9340 C.ar   401  3X5401      0.0000
      8 N2        -19.3770  -39.3420    0.0950 N.ar   401  3X5401      0.0000
      9 C27       -20.3050  -40.1600    0.6350 C.ar   401  3X5401      0.0000
     10 N1        -22.4360  -43.0500    2.9040 N.3    401  3X5401      0.0000
     11 C22       -23.3880  -41.9820    3.2500 C.3    401  3X5401      0.0000
     12 C21       -24.7610  -42.5940    3.5290 C.3    401  3X5401      0.0000
     13 C20       -24.8730  -42.9890    5.0000 C.3    401  3X5401      0.0000
     14 C19       -24.7540  -41.7770    5.9130 C.3    401  3X5401      0.0000
     15 C18       -24.9510  -42.1890    7.3660 C.3    401  3X5401      0.0000
     16 C17       -24.8580  -40.9770    8.2860 C.3    401  3X5401      0.0000
     17 C16       -25.8460  -39.8910    7.8750 C.3    401  3X5401      0.0000
     18 C15       -25.6640  -39.4990    6.4120 C.3    401  3X5401      0.0000
     19 C14       -25.7730  -40.7230    5.5120 C.3    401  3X5401      0.0000
     20 C13       -25.5640  -40.3270    4.0570 C.3    401  3X5401      0.0000
     21 N         -25.7640  -41.5530    3.2900 N.am   401  3X5401      0.0000
     22 C         -26.7520  -41.7760    2.4270 C.2    401  3X5401      0.0000
     23 O         -27.1490  -42.9030    2.1820 O.2    401  3X5401      0.0000
     24 C1        -27.3910  -40.6050    1.7410 C.ar   401  3X5401      0.0000
     25 C12       -28.2890  -39.8000    2.4320 C.ar   401  3X5401      0.0000
     26 C11       -28.8810  -38.7150    1.7960 C.ar   401  3X5401      0.0000
     27 C4        -28.5750  -38.4350    0.4690 C.ar   401  3X5401      0.0000
     28 C3        -27.6770  -39.2410   -0.2220 C.ar   401  3X5401      0.0000
     29 C2        -27.0850  -40.3250    0.4140 C.ar   401  3X5401      0.0000
     30 C5        -29.2080  -37.2750   -0.2110 C.ar   401  3X5401      0.0000
     31 C10       -29.2600  -37.2260   -1.5990 C.ar   401  3X5401      0.0000
     32 C9        -29.8520  -36.1410   -2.2350 C.ar   401  3X5401      0.0000
     33 C8        -30.3930  -35.1050   -1.4830 C.ar   401  3X5401      0.0000
     34 C7        -30.3410  -35.1530   -0.0950 C.ar   401  3X5401      0.0000
     35 C6        -29.7490  -36.2380    0.5410 C.ar   401  3X5401      0.0000
     36 H         -19.5456  -43.4390    1.0523 H      401  3X5401      0.0000
     37 H         -21.8953  -42.0108    1.1531 H      401  3X5401      0.0000
     38 H         -19.7421  -42.1318    3.3891 H      401  3X5401      0.0000
     39 H         -21.0570  -40.9355    3.5140 H      401  3X5401      0.0000
     40 H         -17.4363  -38.6829    0.7038 H      401  3X5401      0.0000
     41 H         -19.4824  -38.7049   -1.0527 H      401  3X5401      0.0000
     42 H         -21.2414  -40.3146    0.0867 H      401  3X5401      0.0000
     43 H         -22.0226  -43.4401    3.7479 H      401  3X5401      0.0000
     44 H         -23.4987  -41.3068    2.3703 H      401  3X5401      0.0000
     45 H         -22.9920  -41.3610    4.0752 H      401  3X5401      0.0000
     46 H         -24.9156  -43.4841    2.8760 H      401  3X5401      0.0000
     47 H         -24.0882  -43.7388    5.2516 H      401  3X5401      0.0000
     48 H         -25.8526  -43.4948    5.1667 H      401  3X5401      0.0000
     49 H         -23.7297  -41.3447    5.8419 H      401  3X5401      0.0000
     50 H         -24.1814  -42.9398    7.6606 H      401  3X5401      0.0000
     51 H         -25.9425  -42.6809    7.4971 H      401  3X5401      0.0000
     52 H         -23.8213  -40.5677    8.2652 H      401  3X5401      0.0000
     53 H         -25.0537  -41.2862    9.3390 H      401  3X5401      0.0000
     54 H         -25.7144  -38.9951    8.5252 H      401  3X5401      0.0000
     55 H         -26.8882  -40.2505    8.0404 H      401  3X5401      0.0000
     56 H         -24.6726  -39.0080    6.2766 H      401  3X5401      0.0000
     57 H         -26.4353  -38.7450    6.1305 H      401  3X5401      0.0000
     58 H         -26.8022  -41.1461    5.6210 H      401  3X5401      0.0000
     59 H         -24.5636  -39.8711    3.8989 H      401  3X5401      0.0000
     60 H         -26.2869  -39.5303    3.7863 H      401  3X5401      0.0000
     61 H         -28.5465  -40.0260    3.4807 H      401  3X5401      0.0000
     62 H         -29.5990  -38.1098    2.3702 H      401  3X5401      0.0000
     63 H         -27.4011  -39.0446   -1.2692 H      401  3X5401      0.0000
     64 H         -26.3721  -40.9649   -0.1328 H      401  3X5401      0.0000
     65 H         -28.8554  -38.0335   -2.2282 H      401  3X5401      0.0000
     66 H         -29.8953  -36.1025   -3.3370 H      401  3X5401      0.0000
     67 H         -30.8636  -34.2442   -1.9880 H      401  3X5401      0.0000
     68 H         -30.7687  -34.3286    0.5009 H      401  3X5401      0.0000
     69 H         -29.7159  -36.2345    1.6413 H      401  3X5401      0.0000
@<TRIPOS>BOND
     1     1     2    2
     2     2     3    1
     3     2    36    1
     4     3     4    1
     5     3    10    1
     6     3    37    1
     7     4     5    1
     8     4    38    1
     9     4    39    1
    10     5     6   ar
    11     5     9   ar
    12     6     7   ar
    13     7     8   ar
    14     7    40    1
    15     8     9   ar
    16     8    41    1
    17     9    42    1
    18    10    11    1
    19    10    43    1
    20    11    12    1
    21    11    44    1
    22    11    45    1
    23    12    13    1
    24    12    21    1
    25    12    46    1
    26    13    14    1
    27    13    47    1
    28    13    48    1
    29    14    15    1
    30    14    19    1
    31    14    49    1
    32    15    16    1
    33    15    50    1
    34    15    51    1
    35    16    17    1
    36    16    52    1
    37    16    53    1
    38    17    18    1
    39    17    54    1
    40    17    55    1
    41    18    19    1
    42    18    56    1
    43    18    57    1
    44    19    20    1
    45    19    58    1
    46    20    21    1
    47    20    59    1
    48    20    60    1
    49    21    22    1
    50    22    23    2
    51    22    24    1
    52    24    25   ar
    53    24    29   ar
    54    25    26   ar
    55    25    61    1
    56    26    27   ar
    57    26    62    1
    58    27    28   ar
    59    27    30    1
    60    28    29   ar
    61    28    63    1
    62    29    64    1
    63    30    31   ar
    64    30    35   ar
    65    31    32   ar
    66    31    65    1
    67    32    33   ar
    68    32    66    1
    69    33    34   ar
    70    33    67    1
    71    34    35   ar
    72    34    68    1
    73    35    69    1

