DMS_2_A_403
  -ISIS-            3D

 10  9  0  0  0  0  0  0  0  0  1 V2000
   -2.4530  -18.7350   -8.1190 S   0  0  0  0  0
   -3.6470  -18.8510   -9.0670 O   0  0  0  0  0
   -1.0710  -18.3160   -9.1640 C   0  0  0  0  0
   -1.9660  -20.3850   -7.7710 C   0  0  0  0  0
   -0.1284  -18.3696   -8.5817 H   0  0  0  0  0
   -1.1992  -17.2811   -9.5419 H   0  0  0  0  0
   -1.0131  -19.0104  -10.0274 H   0  0  0  0  0
   -1.0021  -20.3878   -7.2223 H   0  0  0  0  0
   -1.8571  -20.9663   -8.7098 H   0  0  0  0  0
   -2.7365  -20.8697   -7.1372 H   0  0  0  0  0
  1  2  2  0  0  0
  1  3  1  0  0  0
  1  4  1  0  0  0
  3  5  1  0  0  0
  3  6  1  0  0  0
  3  7  1  0  0  0
  4  8  1  0  0  0
  4  9  1  0  0  0
  4 10  1  0  0  0
M  END
$$$$
