@<TRIPOS>MOLECULE
DMS_1_A_403
 10 9 0 0 0
SMALL
NO_CHARGES

@<TRIPOS>ATOM
      1 S           6.5880   -0.1160   18.9820 S.o    403  DMS403      0.0000
      2 O           8.0200   -0.2170   18.5250 O.2    403  DMS403      0.0000
      3 C1          5.6780    0.9070   17.8060 C.3    403  DMS403      0.0000
      4 C2          6.4960    0.9530   20.4520 C.3    403  DMS403      0.0000
      5 H           4.6394    1.0540   18.1665 H      403  DMS403      0.0000
      6 H           5.6527    0.3980   16.8208 H      403  DMS403      0.0000
      7 H           6.1767    1.8918   17.6969 H      403  DMS403      0.0000
      8 H           5.4347    1.0953   20.7414 H      403  DMS403      0.0000
      9 H           6.9579    1.9371   20.2311 H      403  DMS403      0.0000
     10 H           7.0415    0.4703   21.2885 H      403  DMS403      0.0000
@<TRIPOS>BOND
     1     1     2    2
     2     1     3    1
     3     1     4    1
     4     3     5    1
     5     3     6    1
     6     3     7    1
     7     4     8    1
     8     4     9    1
     9     4    10    1

