IMD_2_A_402
  -ISIS-            3D

  9  9  0  0  0  0  0  0  0  0  1 V2000
  -17.1130   24.5230   21.8380 N   0  0  0  0  0
  -16.0340   24.6940   22.5900 C   0  0  0  0  0
  -15.9220   25.9970   22.8790 N   0  0  0  0  0
  -16.9460   26.6190   22.2890 C   0  0  0  0  0
  -17.6980   25.6800   21.6210 C   0  0  0  0  0
  -17.4383   23.6179   21.4756 H   0  0  0  0  0
  -15.3007   23.9708   22.9697 H   0  0  0  0  0
  -17.0571   27.7050   22.3925 H   0  0  0  0  0
  -18.6087   25.8502   21.0284 H   0  0  0  0  0
  1  2  2  0  0  0
  1  5  1  0  0  0
  1  6  1  0  0  0
  2  3  1  0  0  0
  2  7  1  0  0  0
  3  4  1  0  0  0
  4  5  1  0  0  0
  4  8  1  0  0  0
  5  9  1  0  0  0
M  END
$$$$
