@<TRIPOS>MOLECULE
XIY_1_A_201
 19 20 0 0 0
SMALL
NO_CHARGES

@<TRIPOS>ATOM
      1 NG        -51.4700  -29.4160    5.0290 N.ar   201  XIY201      0.0000
      2 CD1       -51.6910  -29.6270    6.2450 C.ar   201  XIY201      0.0000
      3 NE1       -50.5360  -29.5300    6.9330 N.ar   201  XIY201      0.0000
      4 CE2       -49.6100  -29.2650    6.1040 C.ar   201  XIY201      0.0000
      5 CZ2       -48.1720  -29.0200    6.2020 C.ar   201  XIY201      0.0000
      6 CH2       -47.4570  -28.7050    5.1550 C.ar   201  XIY201      0.0000
      7 CZ3       -48.1030  -28.6270    3.8710 C.ar   201  XIY201      0.0000
      8 CE3       -49.4400  -28.8510    3.7600 C.ar   201  XIY201      0.0000
      9 CD2       -50.1970  -29.1520    4.8910 C.ar   201  XIY201      0.0000
     10 C         -53.1070  -29.9930    6.7200 C.3    201  XIY201      0.0000
     11 O         -53.2720  -29.1600    7.8210 O.3    201  XIY201      0.0000
     12 H         -52.1516  -29.4347    4.2606 H      201  XIY201      0.0000
     13 H         -47.6973  -29.1006    7.1946 H      201  XIY201      0.0000
     14 H         -46.3746  -28.5095    5.2371 H      201  XIY201      0.0000
     15 H         -47.5045  -28.3801    2.9777 H      201  XIY201      0.0000
     16 H         -49.9330  -28.7919    2.7755 H      201  XIY201      0.0000
     17 H         -53.1794  -31.0623    7.0087 H      201  XIY201      0.0000
     18 H         -53.8800  -29.7692    5.9567 H      201  XIY201      0.0000
     19 H         -52.7131  -29.4508    8.5297 H      201  XIY201      0.0000
@<TRIPOS>BOND
     1     1     2   ar
     2     1     9   ar
     3     1    12    1
     4     2     3   ar
     5     2    10    1
     6     3     4   ar
     7     4     5   ar
     8     4     9   ar
     9     5     6   ar
    10     5    13    1
    11     6     7   ar
    12     6    14    1
    13     7     8   ar
    14     7    15    1
    15     8     9   ar
    16     8    16    1
    17    10    11    1
    18    10    17    1
    19    10    18    1
    20    11    19    1

