@<TRIPOS>MOLECULE
PGE_2_A_2001
 24 23 0 0 0
SMALL
NO_CHARGES

@<TRIPOS>ATOM
      1 C1         32.4840    6.5150   65.8020 C.3   2001  PGE2001      0.0000
      2 O1         32.0760    5.5940   64.7990 O.3   2001  PGE2001      0.0000
      3 C2         31.7450    7.8240   65.6070 C.3   2001  PGE2001      0.0000
      4 O2         32.2490    8.4850   64.4640 O.3   2001  PGE2001      0.0000
      5 C3         31.4160    9.5330   64.0120 C.3   2001  PGE2001      0.0000
      6 C4         32.1570   10.3190   62.9480 C.3   2001  PGE2001      0.0000
      7 O4         35.3200    8.4550   60.3960 O.3   2001  PGE2001      0.0000
      8 C6         33.9360    8.7030   60.1930 C.3   2001  PGE2001      0.0000
      9 C5         33.5120    9.8590   61.0750 C.3   2001  PGE2001      0.0000
     10 O3         32.3770    9.4830   61.8290 O.3   2001  PGE2001      0.0000
     11 H          33.5822    6.6727   65.7550 H     2001  PGE2001      0.0000
     12 H          32.2505    6.0905   66.8015 H     2001  PGE2001      0.0000
     13 H          32.6158    4.8174   64.8667 H     2001  PGE2001      0.0000
     14 H          31.8818    8.4753   66.4958 H     2001  PGE2001      0.0000
     15 H          30.6572    7.6287   65.5007 H     2001  PGE2001      0.0000
     16 H          31.1591   10.2059   64.8574 H     2001  PGE2001      0.0000
     17 H          30.4683    9.1219   63.6058 H     2001  PGE2001      0.0000
     18 H          33.1124   10.6905   63.3738 H     2001  PGE2001      0.0000
     19 H          31.5685   11.2056   62.6327 H     2001  PGE2001      0.0000
     20 H          35.4146    7.9424   61.1885 H     2001  PGE2001      0.0000
     21 H          33.3544    7.7823   60.4102 H     2001  PGE2001      0.0000
     22 H          33.7660    8.9460   59.1239 H     2001  PGE2001      0.0000
     23 H          33.2751   10.7561   60.4660 H     2001  PGE2001      0.0000
     24 H          34.3472   10.1373   61.7509 H     2001  PGE2001      0.0000
@<TRIPOS>BOND
     1     1     2    1
     2     1     3    1
     3     1    11    1
     4     1    12    1
     5     2    13    1
     6     3     4    1
     7     3    14    1
     8     3    15    1
     9     4     5    1
    10     5     6    1
    11     5    16    1
    12     5    17    1
    13     6    10    1
    14     6    18    1
    15     6    19    1
    16     7     8    1
    17     7    20    1
    18     8     9    1
    19     8    21    1
    20     8    22    1
    21     9    10    1
    22     9    23    1
    23     9    24    1

