PGE_2_A_2001
  -ISIS-            3D

 24 23  0  0  0  0  0  0  0  0  1 V2000
   32.4840    6.5150   65.8020 C   0  0  0  0  0
   32.0760    5.5940   64.7990 O   0  0  0  0  0
   31.7450    7.8240   65.6070 C   0  0  0  0  0
   32.2490    8.4850   64.4640 O   0  0  0  0  0
   31.4160    9.5330   64.0120 C   0  0  0  0  0
   32.1570   10.3190   62.9480 C   0  0  0  0  0
   35.3200    8.4550   60.3960 O   0  0  0  0  0
   33.9360    8.7030   60.1930 C   0  0  0  0  0
   33.5120    9.8590   61.0750 C   0  0  0  0  0
   32.3770    9.4830   61.8290 O   0  0  0  0  0
   33.5822    6.6727   65.7550 H   0  0  0  0  0
   32.2505    6.0905   66.8015 H   0  0  0  0  0
   32.6158    4.8174   64.8667 H   0  0  0  0  0
   31.8818    8.4753   66.4958 H   0  0  0  0  0
   30.6572    7.6287   65.5007 H   0  0  0  0  0
   31.1591   10.2059   64.8574 H   0  0  0  0  0
   30.4683    9.1219   63.6058 H   0  0  0  0  0
   33.1124   10.6905   63.3738 H   0  0  0  0  0
   31.5685   11.2056   62.6327 H   0  0  0  0  0
   35.4146    7.9424   61.1885 H   0  0  0  0  0
   33.3544    7.7823   60.4102 H   0  0  0  0  0
   33.7660    8.9460   59.1239 H   0  0  0  0  0
   33.2751   10.7561   60.4660 H   0  0  0  0  0
   34.3472   10.1373   61.7509 H   0  0  0  0  0
  1  2  1  0  0  0
  1  3  1  0  0  0
  1 11  1  0  0  0
  1 12  1  0  0  0
  2 13  1  0  0  0
  3  4  1  0  0  0
  3 14  1  0  0  0
  3 15  1  0  0  0
  4  5  1  0  0  0
  5  6  1  0  0  0
  5 16  1  0  0  0
  5 17  1  0  0  0
  6 10  1  0  0  0
  6 18  1  0  0  0
  6 19  1  0  0  0
  7  8  1  0  0  0
  7 20  1  0  0  0
  8  9  1  0  0  0
  8 21  1  0  0  0
  8 22  1  0  0  0
  9 10  1  0  0  0
  9 23  1  0  0  0
  9 24  1  0  0  0
M  END
$$$$
