DMS_1_A_402
  -ISIS-            3D

 10  9  0  0  0  0  0  0  0  0  1 V2000
    6.1640   -1.0610   -6.3230 S   0  0  0  0  0
    7.0960   -0.8760   -7.4740 O   0  0  0  0  0
    7.1430   -0.9110   -4.8450 C   0  0  0  0  0
    5.8600   -2.8040   -6.2140 C   0  0  0  0  0
    6.5327   -1.1832   -3.9597 H   0  0  0  0  0
    7.4825    0.1393   -4.7363 H   0  0  0  0  0
    8.0311   -1.5734   -4.9003 H   0  0  0  0  0
    5.2850   -3.0296   -5.2927 H   0  0  0  0  0
    6.8173   -3.3644   -6.1986 H   0  0  0  0  0
    5.2668   -3.1282   -7.0934 H   0  0  0  0  0
  1  2  2  0  0  0
  1  3  1  0  0  0
  1  4  1  0  0  0
  3  5  1  0  0  0
  3  6  1  0  0  0
  3  7  1  0  0  0
  4  8  1  0  0  0
  4  9  1  0  0  0
  4 10  1  0  0  0
M  END
$$$$
