@<TRIPOS>MOLECULE
DMS_2_A_402
 10 9 0 0 0
SMALL
NO_CHARGES

@<TRIPOS>ATOM
      1 S          -6.1640   -1.0610    6.3230 S.o    402  DMS402      0.0000
      2 O          -7.0960   -0.8760    7.4740 O.2    402  DMS402      0.0000
      3 C1         -7.1430   -0.9110    4.8450 C.3    402  DMS402      0.0000
      4 C2         -5.8600   -2.8040    6.2140 C.3    402  DMS402      0.0000
      5 H          -6.5327   -1.1832    3.9597 H      402  DMS402      0.0000
      6 H          -7.4825    0.1393    4.7363 H      402  DMS402      0.0000
      7 H          -8.0311   -1.5734    4.9003 H      402  DMS402      0.0000
      8 H          -5.2850   -3.0296    5.2927 H      402  DMS402      0.0000
      9 H          -6.8173   -3.3644    6.1986 H      402  DMS402      0.0000
     10 H          -5.2668   -3.1282    7.0934 H      402  DMS402      0.0000
@<TRIPOS>BOND
     1     1     2    2
     2     1     3    1
     3     1     4    1
     4     3     5    1
     5     3     6    1
     6     3     7    1
     7     4     8    1
     8     4     9    1
     9     4    10    1

