DMS_1_A_401
  -ISIS-            3D

 10  9  0  0  0  0  0  0  0  0  1 V2000
    6.9950  -28.0270   21.6710 S   0  0  0  0  0
    7.6850  -26.9810   22.4340 O   0  0  0  0  0
    5.7240  -28.6400   22.7460 C   0  0  0  0  0
    5.9540  -27.2030   20.5110 C   0  0  0  0  0
    5.0669  -29.3405   22.1911 H   0  0  0  0  0
    5.1163  -27.8019   23.1454 H   0  0  0  0  0
    6.1901  -29.1832   23.5934 H   0  0  0  0  0
    5.2951  -27.9386   20.0061 H   0  0  0  0  0
    6.5810  -26.7018   19.7454 H   0  0  0  0  0
    5.3310  -26.4399   21.0215 H   0  0  0  0  0
  1  2  2  0  0  0
  1  3  1  0  0  0
  1  4  1  0  0  0
  3  5  1  0  0  0
  3  6  1  0  0  0
  3  7  1  0  0  0
  4  8  1  0  0  0
  4  9  1  0  0  0
  4 10  1  0  0  0
M  END
$$$$
