@<TRIPOS>MOLECULE
DMS_1_A_403
 10 9 0 0 0
SMALL
NO_CHARGES

@<TRIPOS>ATOM
      1 S          20.8350  -15.6030    5.2340 S.o    403  DMS403      0.0000
      2 O          22.2130  -15.1870    5.6520 O.2    403  DMS403      0.0000
      3 C1         20.8440  -16.3140    3.5640 C.3    403  DMS403      0.0000
      4 C2         20.3570  -17.0680    6.1920 C.3    403  DMS403      0.0000
      5 H          19.8277  -16.6785    3.3101 H      403  DMS403      0.0000
      6 H          21.5648  -17.1559    3.5177 H      403  DMS403      0.0000
      7 H          21.1446  -15.5327    2.8364 H      403  DMS403      0.0000
      8 H          19.3582  -17.4186    5.8607 H      403  DMS403      0.0000
      9 H          20.3122  -16.8026    7.2680 H      403  DMS403      0.0000
     10 H          21.1035  -17.8750    6.0434 H      403  DMS403      0.0000
@<TRIPOS>BOND
     1     1     2    2
     2     1     3    1
     3     1     4    1
     4     3     5    1
     5     3     6    1
     6     3     7    1
     7     4     8    1
     8     4     9    1
     9     4    10    1

