DMS_2_A_403
  -ISIS-            3D

 10  9  0  0  0  0  0  0  0  0  1 V2000
  -20.8350  -15.6030   -5.2340 S   0  0  0  0  0
  -22.2130  -15.1870   -5.6520 O   0  0  0  0  0
  -20.8440  -16.3140   -3.5640 C   0  0  0  0  0
  -20.3570  -17.0680   -6.1920 C   0  0  0  0  0
  -19.8277  -16.6785   -3.3101 H   0  0  0  0  0
  -21.5648  -17.1559   -3.5177 H   0  0  0  0  0
  -21.1446  -15.5327   -2.8364 H   0  0  0  0  0
  -19.3582  -17.4186   -5.8607 H   0  0  0  0  0
  -20.3122  -16.8026   -7.2680 H   0  0  0  0  0
  -21.1035  -17.8750   -6.0434 H   0  0  0  0  0
  1  2  2  0  0  0
  1  3  1  0  0  0
  1  4  1  0  0  0
  3  5  1  0  0  0
  3  6  1  0  0  0
  3  7  1  0  0  0
  4  8  1  0  0  0
  4  9  1  0  0  0
  4 10  1  0  0  0
M  END
$$$$
