DMS_2_A_402
  -ISIS-            3D

 10  9  0  0  0  0  0  0  0  0  1 V2000
   -6.9040  -28.2610  -21.3950 S   0  0  0  0  0
   -7.5690  -27.2610  -22.2670 O   0  0  0  0  0
   -5.9450  -27.3390  -20.1600 C   0  0  0  0  0
   -5.6480  -29.1240  -22.3770 C   0  0  0  0  0
   -5.3726  -28.0515  -19.5316 H   0  0  0  0  0
   -6.6374  -26.7574  -19.5177 H   0  0  0  0  0
   -5.2438  -26.6471  -20.6701 H   0  0  0  0  0
   -5.0820  -29.8182  -21.7229 H   0  0  0  0  0
   -4.9520  -28.3866  -22.8268 H   0  0  0  0  0
   -6.1457  -29.7020  -23.1823 H   0  0  0  0  0
  1  2  2  0  0  0
  1  3  1  0  0  0
  1  4  1  0  0  0
  3  5  1  0  0  0
  3  6  1  0  0  0
  3  7  1  0  0  0
  4  8  1  0  0  0
  4  9  1  0  0  0
  4 10  1  0  0  0
M  END
$$$$
