@<TRIPOS>MOLECULE
DMS_2_A_402
 10 9 0 0 0
SMALL
NO_CHARGES

@<TRIPOS>ATOM
      1 S          -6.9040  -28.2610  -21.3950 S.o    402  DMS402      0.0000
      2 O          -7.5690  -27.2610  -22.2670 O.2    402  DMS402      0.0000
      3 C1         -5.9450  -27.3390  -20.1600 C.3    402  DMS402      0.0000
      4 C2         -5.6480  -29.1240  -22.3770 C.3    402  DMS402      0.0000
      5 H          -5.3726  -28.0515  -19.5316 H      402  DMS402      0.0000
      6 H          -6.6374  -26.7574  -19.5177 H      402  DMS402      0.0000
      7 H          -5.2438  -26.6471  -20.6701 H      402  DMS402      0.0000
      8 H          -5.0820  -29.8182  -21.7229 H      402  DMS402      0.0000
      9 H          -4.9520  -28.3866  -22.8268 H      402  DMS402      0.0000
     10 H          -6.1457  -29.7020  -23.1823 H      402  DMS402      0.0000
@<TRIPOS>BOND
     1     1     2    2
     2     1     3    1
     3     1     4    1
     4     3     5    1
     5     3     6    1
     6     3     7    1
     7     4     8    1
     8     4     9    1
     9     4    10    1

