DMS_2_A_403
  -ISIS-            3D

 10  9  0  0  0  0  0  0  0  0  1 V2000
   -2.3320  -18.7580   -8.1740 S   0  0  0  0  0
   -3.5770  -18.6960   -9.0390 O   0  0  0  0  0
   -0.9660  -18.3990   -9.2480 C   0  0  0  0  0
   -1.9820  -20.4890   -8.0090 C   0  0  0  0  0
   -0.0093  -18.5961   -8.7224 H   0  0  0  0  0
   -0.9998  -17.3282   -9.5354 H   0  0  0  0  0
   -1.0188  -19.0185  -10.1667 H   0  0  0  0  0
   -0.9945  -20.6310   -7.5240 H   0  0  0  0  0
   -1.9813  -20.9837   -9.0019 H   0  0  0  0  0
   -2.7603  -20.9600   -7.3743 H   0  0  0  0  0
  1  2  2  0  0  0
  1  3  1  0  0  0
  1  4  1  0  0  0
  3  5  1  0  0  0
  3  6  1  0  0  0
  3  7  1  0  0  0
  4  8  1  0  0  0
  4  9  1  0  0  0
  4 10  1  0  0  0
M  END
$$$$
