@<TRIPOS>MOLECULE
DMS_2_A_403
 10 9 0 0 0
SMALL
NO_CHARGES

@<TRIPOS>ATOM
      1 S          -2.3320  -18.7580   -8.1740 S.o    403  DMS403      0.0000
      2 O          -3.5770  -18.6960   -9.0390 O.2    403  DMS403      0.0000
      3 C1         -0.9660  -18.3990   -9.2480 C.3    403  DMS403      0.0000
      4 C2         -1.9820  -20.4890   -8.0090 C.3    403  DMS403      0.0000
      5 H          -0.0093  -18.5961   -8.7224 H      403  DMS403      0.0000
      6 H          -0.9998  -17.3282   -9.5354 H      403  DMS403      0.0000
      7 H          -1.0188  -19.0185  -10.1667 H      403  DMS403      0.0000
      8 H          -0.9945  -20.6310   -7.5240 H      403  DMS403      0.0000
      9 H          -1.9813  -20.9837   -9.0019 H      403  DMS403      0.0000
     10 H          -2.7603  -20.9600   -7.3743 H      403  DMS403      0.0000
@<TRIPOS>BOND
     1     1     2    2
     2     1     3    1
     3     1     4    1
     4     3     5    1
     5     3     6    1
     6     3     7    1
     7     4     8    1
     8     4     9    1
     9     4    10    1

