DMS_2_A_402
  -ISIS-            3D

 10  9  0  0  0  0  0  0  0  0  1 V2000
   -6.1220   -0.9350    6.3270 S   0  0  0  0  0
   -7.0910   -0.6910    7.4450 O   0  0  0  0  0
   -7.0660   -0.7790    4.8210 C   0  0  0  0  0
   -5.8600   -2.6860    6.2600 C   0  0  0  0  0
   -6.4446   -1.0849    3.9545 H   0  0  0  0  0
   -7.3700    0.2794    4.6880 H   0  0  0  0  0
   -7.9748   -1.4130    4.8673 H   0  0  0  0  0
   -5.2662   -2.9440    5.3591 H   0  0  0  0  0
   -6.8304   -3.2220    6.2290 H   0  0  0  0  0
   -5.2994   -3.0075    7.1616 H   0  0  0  0  0
  1  2  2  0  0  0
  1  3  1  0  0  0
  1  4  1  0  0  0
  3  5  1  0  0  0
  3  6  1  0  0  0
  3  7  1  0  0  0
  4  8  1  0  0  0
  4  9  1  0  0  0
  4 10  1  0  0  0
M  END
$$$$
