DMS_2_A_401
  -ISIS-            3D

 10  9  0  0  0  0  0  0  0  0  1 V2000
   -7.2450  -28.1540  -21.5870 S   0  0  0  0  0
   -7.8830  -27.0330  -22.3170 O   0  0  0  0  0
   -5.8480  -28.6820  -22.5560 C   0  0  0  0  0
   -6.3340  -27.4520  -20.2440 C   0  0  0  0  0
   -5.2614  -29.4358  -21.9920 H   0  0  0  0  0
   -5.1994  -27.8166  -22.8031 H   0  0  0  0  0
   -6.2098  -29.1423  -23.4982 H   0  0  0  0  0
   -5.7341  -28.2386  -19.7423 H   0  0  0  0  0
   -7.0418  -27.0195  -19.5075 H   0  0  0  0  0
   -5.6604  -26.6499  -20.6094 H   0  0  0  0  0
  1  2  2  0  0  0
  1  3  1  0  0  0
  1  4  1  0  0  0
  3  5  1  0  0  0
  3  6  1  0  0  0
  3  7  1  0  0  0
  4  8  1  0  0  0
  4  9  1  0  0  0
  4 10  1  0  0  0
M  END
$$$$
