0EN_2_A_401
  -ISIS-            3D

 63 65  0  0  0  0  0  0  0  0  1 V2000
   -4.9410  -13.9980  -21.5120 O   0  0  0  0  0
   -6.0190  -14.2530  -21.9300 C   0  0  0  0  0
   -6.3930  -15.7600  -22.1150 C   0  0  0  0  0
   -7.3970  -16.2750  -22.9030 C   0  0  0  0  0
   -7.3560  -17.6330  -22.8050 C   0  0  0  0  0
   -6.3240  -17.9700  -21.9690 C   0  0  0  0  0
   -5.7280  -16.8090  -21.5510 O   0  0  0  0  0
   -6.9080  -13.1090  -22.2600 N   0  0  0  0  0
   -8.2960  -13.2400  -22.8510 C   0  0  0  0  0
   -9.5510  -13.3920  -21.9650 C   0  0  0  0  0
  -10.9460  -13.5090  -22.6370 C   0  0  0  0  0
  -11.0720  -13.4670  -24.1790 C   0  0  0  0  0
  -12.4660  -13.5840  -24.8470 C   0  0  0  0  0
  -12.7470  -12.2990  -25.6530 C   0  0  0  0  0
  -12.4750  -14.7890  -25.7690 C   0  0  0  0  0
  -13.5290  -13.7730  -23.7360 C   0  0  0  0  0
   -9.8160  -13.3050  -25.0560 C   0  0  0  0  0
   -8.4220  -13.1870  -24.3880 C   0  0  0  0  0
   -6.3330  -11.7830  -22.0740 C   0  0  0  0  0
   -7.3170  -10.6610  -22.4020 C   0  0  0  0  0
   -7.0180   -9.6250  -23.4290 N   0  0  0  0  0
   -8.0130   -8.5310  -23.7220 C   0  0  0  0  0
   -9.4430   -9.1160  -23.7800 C   0  0  0  0  0
   -7.9410   -7.4510  -22.6320 C   0  0  0  0  0
   -7.6960   -7.8870  -25.0860 C   0  0  0  0  0
   -8.3220  -10.6110  -21.7790 O   0  0  0  0  0
   -5.9400  -11.4890  -20.6200 C   0  0  0  0  0
   -4.7690  -10.6000  -20.3420 C   0  0  0  0  0
   -4.3990  -10.2990  -18.9170 C   0  0  0  0  0
   -5.2280  -10.8940  -17.7770 C   0  0  0  0  0
   -6.4040  -11.7690  -18.0730 N   0  0  0  0  0
   -6.7790  -12.0750  -19.4830 C   0  0  0  0  0
   -8.1135  -15.7148  -23.5122 H   0  0  0  0  0
   -8.0286  -18.3383  -23.3086 H   0  0  0  0  0
   -5.8848  -18.8890  -21.5784 H   0  0  0  0  0
   -9.4635  -13.4182  -20.8683 H   0  0  0  0  0
  -11.8167  -13.6180  -21.9747 H   0  0  0  0  0
  -13.7571  -12.3208  -26.1195 H   0  0  0  0  0
  -12.0144  -12.1458  -26.4756 H   0  0  0  0  0
  -12.7056  -11.3942  -25.0060 H   0  0  0  0  0
  -13.4724  -14.9409  -26.2388 H   0  0  0  0  0
  -12.2276  -15.7275  -25.2239 H   0  0  0  0  0
  -11.7431  -14.6957  -26.6010 H   0  0  0  0  0
  -14.5459  -13.8727  -24.1777 H   0  0  0  0  0
  -13.5819  -12.9028  -23.0445 H   0  0  0  0  0
  -13.3630  -14.6957  -23.1364 H   0  0  0  0  0
   -9.8923  -13.2691  -26.1542 H   0  0  0  0  0
   -7.5219  -13.0665  -25.0121 H   0  0  0  0  0
   -5.4376  -11.6628  -22.7270 H   0  0  0  0  0
   -6.1255   -9.6610  -23.9400 H   0  0  0  0  0
  -10.1543   -8.3860  -24.2270 H   0  0  0  0  0
   -9.8667   -9.3657  -22.7851 H   0  0  0  0  0
   -9.4894  -10.0318  -24.4113 H   0  0  0  0  0
   -8.6587   -6.6221  -22.8228 H   0  0  0  0  0
   -6.9250   -7.0007  -22.5710 H   0  0  0  0  0
   -8.1748   -7.8605  -21.6244 H   0  0  0  0  0
   -8.4082   -7.0697  -25.3377 H   0  0  0  0  0
   -7.7458   -8.6334  -25.9104 H   0  0  0  0  0
   -6.6738   -7.4469  -25.1043 H   0  0  0  0  0
   -4.1770  -10.1683  -21.1656 H   0  0  0  0  0
   -3.5355   -9.6522  -18.6915 H   0  0  0  0  0
   -4.9722  -10.6855  -16.7257 H   0  0  0  0  0
   -7.6504  -12.7181  -19.6722 H   0  0  0  0  0
  1  2  2  0  0  0
  2  3  1  0  0  0
  2  8  1  0  0  0
  3  4  2  0  0  0
  3  7  1  0  0  0
  4  5  1  0  0  0
  4 33  1  0  0  0
  5  6  2  0  0  0
  5 34  1  0  0  0
  6  7  1  0  0  0
  6 35  1  0  0  0
  8  9  1  0  0  0
  8 19  1  0  0  0
  9 10  1  0  0  0
  9 18  1  0  0  0
 10 11  1  0  0  0
 10 36  1  0  0  0
 11 12  1  0  0  0
 11 37  1  0  0  0
 12 13  1  0  0  0
 12 17  1  0  0  0
 13 14  1  0  0  0
 13 15  1  0  0  0
 13 16  1  0  0  0
 14 38  1  0  0  0
 14 39  1  0  0  0
 14 40  1  0  0  0
 15 41  1  0  0  0
 15 42  1  0  0  0
 15 43  1  0  0  0
 16 44  1  0  0  0
 16 45  1  0  0  0
 16 46  1  0  0  0
 17 18  1  0  0  0
 17 47  1  0  0  0
 18 48  1  0  0  0
 19 20  1  0  0  0
 19 27  1  0  0  0
 19 49  1  0  0  0
 20 21  1  0  0  0
 20 26  2  0  0  0
 21 22  1  0  0  0
 21 50  1  0  0  0
 22 23  1  0  0  0
 22 24  1  0  0  0
 22 25  1  0  0  0
 23 51  1  0  0  0
 23 52  1  0  0  0
 23 53  1  0  0  0
 24 54  1  0  0  0
 24 55  1  0  0  0
 24 56  1  0  0  0
 25 57  1  0  0  0
 25 58  1  0  0  0
 25 59  1  0  0  0
 27 28  1  0  0  0
 27 32  1  0  0  0
 28 29  1  0  0  0
 28 60  1  0  0  0
 29 30  1  0  0  0
 29 61  1  0  0  0
 30 31  1  0  0  0
 30 62  1  0  0  0
 31 32  1  0  0  0
 32 63  1  0  0  0
M  END
$$$$
