4BL_1_A_201
  -ISIS-            3D

 21 22  0  0  0  0  0  0  0  0  1 V2000
   10.7790    1.8790   19.0210 C   0  0  0  0  0
   10.8590    2.6720   20.0710 N   0  0  0  0  0
   10.1760    2.5560   17.9770 C   0  0  0  0  0
   10.3330    3.8670   19.7800 C   0  0  0  0  0
   11.2770    0.4400   18.9640 C   0  0  0  0  0
    9.8920    3.8350   18.4830 C   0  0  0  0  0
   10.1780    5.0310   20.5400 C   0  0  0  0  0
   11.6960   -0.1190   20.0100 O   0  0  0  0  0
    9.2930    4.9600   17.9180 C   0  0  0  0  0
   11.2760   -0.1860   17.8750 O   0  0  0  0  0
    9.5800    6.1470   19.9800 C   0  0  0  0  0
    9.1400    6.1110   18.6670 C   0  0  0  0  0
    9.4090    7.4270   20.7900 C   0  0  0  0  0
   11.3781    2.3466   21.2368 H   0  0  0  0  0
    9.9611    2.1829   16.9672 H   0  0  0  0  0
   10.5342    5.0522   21.5830 H   0  0  0  0  0
    8.9425    4.9284   16.8729 H   0  0  0  0  0
    8.6660    6.9962   18.2107 H   0  0  0  0  0
    8.9136    8.2334   20.2062 H   0  0  0  0  0
   10.3945    7.8184   21.1269 H   0  0  0  0  0
    8.7889    7.2440   21.6955 H   0  0  0  0  0
  1  2  2  0  0  0
  1  3  1  0  0  0
  1  5  1  0  0  0
  2  4  1  0  0  0
  2 14  1  0  0  0
  3  6  2  0  0  0
  3 15  1  0  0  0
  4  6  1  0  0  0
  4  7  2  0  0  0
  5  8  2  0  0  0
  5 10  2  0  0  0
  6  9  1  0  0  0
  7 11  1  0  0  0
  7 16  1  0  0  0
  9 12  2  0  0  0
  9 17  1  0  0  0
 11 12  1  0  0  0
 11 13  1  0  0  0
 12 18  1  0  0  0
 13 19  1  0  0  0
 13 20  1  0  0  0
 13 21  1  0  0  0
M  END
$$$$
