@<TRIPOS>MOLECULE
4BL_1_A_201
 21 22 0 0 0
SMALL
NO_CHARGES

@<TRIPOS>ATOM
      1 C1         10.7790    1.8790   19.0210 C.ar   201  4BL201      0.0000
      2 N2         10.8590    2.6720   20.0710 N.ar   201  4BL201      0.0000
      3 C3         10.1760    2.5560   17.9770 C.ar   201  4BL201      0.0000
      4 C4         10.3330    3.8670   19.7800 C.ar   201  4BL201      0.0000
      5 C5         11.2770    0.4400   18.9640 C.2    201  4BL201      0.0000
      6 C6          9.8920    3.8350   18.4830 C.ar   201  4BL201      0.0000
      7 C7         10.1780    5.0310   20.5400 C.ar   201  4BL201      0.0000
      8 O8         11.6960   -0.1190   20.0100 O.co2  201  4BL201     -0.5000
      9 C9          9.2930    4.9600   17.9180 C.ar   201  4BL201      0.0000
     10 O10        11.2760   -0.1860   17.8750 O.co2  201  4BL201     -0.5000
     11 C11         9.5800    6.1470   19.9800 C.ar   201  4BL201      0.0000
     12 C12         9.1400    6.1110   18.6670 C.ar   201  4BL201      0.0000
     13 C13         9.4090    7.4270   20.7900 C.3    201  4BL201      0.0000
     14 H          11.3781    2.3466   21.2368 H      201  4BL201      0.0000
     15 H           9.9611    2.1829   16.9672 H      201  4BL201      0.0000
     16 H          10.5342    5.0522   21.5830 H      201  4BL201      0.0000
     17 H           8.9425    4.9284   16.8729 H      201  4BL201      0.0000
     18 H           8.6660    6.9962   18.2107 H      201  4BL201      0.0000
     19 H           8.9136    8.2334   20.2062 H      201  4BL201      0.0000
     20 H          10.3945    7.8184   21.1269 H      201  4BL201      0.0000
     21 H           8.7889    7.2440   21.6955 H      201  4BL201      0.0000
@<TRIPOS>BOND
     1     1     2   ar
     2     1     3   ar
     3     1     5    1
     4     2     4   ar
     5     2    14    1
     6     3     6   ar
     7     3    15    1
     8     4     6   ar
     9     4     7   ar
    10     5     8   ar
    11     5    10   ar
    12     6     9   ar
    13     7    11   ar
    14     7    16    1
    15     9    12   ar
    16     9    17    1
    17    11    12   ar
    18    11    13    1
    19    12    18    1
    20    13    19    1
    21    13    20    1
    22    13    21    1

