@<TRIPOS>MOLECULE
SV6_1_A_401
 104 108 0 0 0
SMALL
NO_CHARGES

@<TRIPOS>ATOM
      1 CBN       -18.0700  -11.3360  -35.0410 C.ar   401  SV6401      0.0000
      2 CBO       -18.7490  -12.7020  -36.8590 C.ar   401  SV6401      0.0000
      3 CBP       -18.0150  -13.7570  -36.3290 C.ar   401  SV6401      0.0000
      4 CBB       -18.1140   -9.9940  -34.3270 C.2    401  SV6401      0.0000
      5 CBQ       -17.3480  -12.4090  -34.5120 C.ar   401  SV6401      0.0000
      6 OBW       -17.5260   -9.8790  -33.2370 O.2    401  SV6401      0.0000
      7 NAF       -18.7710  -11.5220  -36.2020 N.ar   401  SV6401      0.0000
      8 NAG       -17.3320  -13.5790  -35.1760 N.ar   401  SV6401      0.0000
      9 NAD       -18.7460   -9.0030  -34.8650 N.am   401  SV6401      0.0000
     10 CAY       -18.8140   -7.7350  -34.1350 C.3    401  SV6401      0.0000
     11 CAX       -19.8720   -7.8910  -33.0860 C.2    401  SV6401      0.0000
     12 OBU       -20.9090   -8.4650  -33.3850 O.2    401  SV6401      0.0000
     13 CBH       -19.1380   -6.6310  -35.1420 C.3    401  SV6401      0.0000
     14 CBI       -17.9270   -6.4410  -36.0350 C.3    401  SV6401      0.0000
     15 CBJ       -18.0490   -5.2490  -36.9850 C.3    401  SV6401      0.0000
     16 CBK       -18.4790   -3.9700  -36.2130 C.3    401  SV6401      0.0000
     17 CBL       -19.7500   -4.2210  -35.4100 C.3    401  SV6401      0.0000
     18 CBM       -19.5260   -5.3400  -34.4060 C.3    401  SV6401      0.0000
     19 NAC       -19.5930   -7.4700  -31.9020 N.am   401  SV6401      0.0000
     20 CAW       -20.5720   -7.5460  -30.8250 C.3    401  SV6401      0.0000
     21 CAZ       -20.2830   -8.6930  -29.8380 C.3    401  SV6401      0.0000
     22 CBC       -18.8980   -8.5630  -29.1730 C.3    401  SV6401      0.0000
     23 CBD       -20.2490   -9.9930  -30.6580 C.3    401  SV6401      0.0000
     24 CBA       -21.4400   -8.7580  -28.8110 C.3    401  SV6401      0.0000
     25 CAV       -20.7100   -6.1640  -30.1880 C.2    401  SV6401      0.0000
     26 OBT       -19.6890   -5.6590  -29.6650 O.2    401  SV6401      0.0000
     27 C         -22.3820   -4.6610  -28.0530 C.2    401  SV6401      0.0000
     28 N         -21.9240   -5.5960  -30.2360 N.am   401  SV6401      0.0000
     29 O         -23.2020   -5.5350  -27.7520 O.2    401  SV6401      0.0000
     30 CA        -22.2760   -4.3530  -29.4970 C.3    401  SV6401      0.0000
     31 CB        -23.5600   -3.8140  -30.0880 C.3    401  SV6401      0.0000
     32 CG        -23.8420   -4.7620  -31.2510 C.3    401  SV6401      0.0000
     33 CBE       -23.4430   -2.4440  -30.7090 C.3    401  SV6401      0.0000
     34 CBF       -23.0840   -2.6700  -32.1970 C.3    401  SV6401      0.0000
     35 CD1       -23.1040   -6.0590  -30.9520 C.3    401  SV6401      0.0000
     36 CD2       -23.2960   -4.1380  -32.5300 C.3    401  SV6401      0.0000
     37 NAA       -23.7330   -3.9730  -23.2090 N.am   401  SV6401      0.0000
     38 NAE       -21.6040   -4.0260  -27.2630 N.am   401  SV6401      0.0000
     39 CAH       -21.6720   -4.3390  -25.7850 C.3    401  SV6401      0.0000
     40 CAI       -22.1820   -3.1930  -24.9320 C.3    401  SV6401      0.0000
     41 CAJ       -20.2530   -4.7480  -25.4190 C.3    401  SV6401      0.0000
     42 CAK       -20.1490   -6.2150  -25.8440 C.3    401  SV6401      0.0000
     43 CAL       -18.7550   -6.7800  -25.6500 C.3    401  SV6401      0.0000
     44 CAM       -22.5100   -3.6300  -23.5060 C.2    401  SV6401      0.0000
     45 CAN       -24.2180   -4.3870  -21.8940 C.3    401  SV6401      0.0000
     46 CAO       -25.4880   -5.2380  -21.8640 C.3    401  SV6401      0.0000
     47 CAP       -24.1380   -5.9030  -21.6870 C.3    401  SV6401      0.0000
     48 OBR       -23.3810   -2.6090  -25.4840 O.3    401  SV6401      0.0000
     49 OBS       -21.6010   -3.5740  -22.7060 O.2    401  SV6401      0.0000
     50 H         -19.3182  -12.8096  -37.7961 H      401  SV6401      0.0000
     51 H         -17.9737  -14.7369  -36.8310 H      401  SV6401      0.0000
     52 H         -16.7819  -12.3198  -33.5719 H      401  SV6401      0.0000
     53 H         -19.2196   -9.1462  -35.7667 H      401  SV6401      0.0000
     54 H         -17.8354   -7.5013  -33.6524 H      401  SV6401      0.0000
     55 H         -20.0088   -6.9436  -35.7685 H      401  SV6401      0.0000
     56 H         -17.7346   -7.3606  -36.6343 H      401  SV6401      0.0000
     57 H         -17.0204   -6.2864  -35.4043 H      401  SV6401      0.0000
     58 H         -18.8049   -5.4756  -37.7724 H      401  SV6401      0.0000
     59 H         -17.0818   -5.0714  -37.5093 H      401  SV6401      0.0000
     60 H         -18.6446   -3.1374  -36.9353 H      401  SV6401      0.0000
     61 H         -17.6562   -3.6456  -35.5349 H      401  SV6401      0.0000
     62 H         -20.5933   -4.4757  -36.0924 H      401  SV6401      0.0000
     63 H         -20.0452   -3.2892  -34.8737 H      401  SV6401      0.0000
     64 H         -18.7294   -5.0489  -33.6833 H      401  SV6401      0.0000
     65 H         -20.4586   -5.4934  -33.8179 H      401  SV6401      0.0000
     66 H         -18.6803   -7.0470  -31.6850 H      401  SV6401      0.0000
     67 H         -21.5586   -7.8069  -31.2606 H      401  SV6401      0.0000
     68 H         -18.6868   -9.4270  -28.5041 H      401  SV6401      0.0000
     69 H         -18.8216   -7.6532  -28.5416 H      401  SV6401      0.0000
     70 H         -18.0697   -8.5197  -29.9139 H      401  SV6401      0.0000
     71 H         -20.1168  -10.8809  -29.9999 H      401  SV6401      0.0000
     72 H         -19.4140  -10.0229  -31.3900 H      401  SV6401      0.0000
     73 H         -21.1931  -10.1619  -31.2221 H      401  SV6401      0.0000
     74 H         -21.2993   -9.5981  -28.0950 H      401  SV6401      0.0000
     75 H         -22.4276   -8.9107  -29.3001 H      401  SV6401      0.0000
     76 H         -21.5126   -7.8303  -28.2050 H      401  SV6401      0.0000
     77 H         -21.4679   -3.6014  -29.6598 H      401  SV6401      0.0000
     78 H         -24.3863   -3.8444  -29.3400 H      401  SV6401      0.0000
     79 H         -24.9386   -4.9385  -31.3589 H      401  SV6401      0.0000
     80 H         -22.7057   -1.7930  -30.1896 H      401  SV6401      0.0000
     81 H         -24.4291   -1.9271  -30.6495 H      401  SV6401      0.0000
     82 H         -22.0201   -2.3895  -32.3756 H      401  SV6401      0.0000
     83 H         -23.7052   -2.0171  -32.8517 H      401  SV6401      0.0000
     84 H         -23.7346   -6.7146  -30.3086 H      401  SV6401      0.0000
     85 H         -22.9026   -6.6027  -31.8996 H      401  SV6401      0.0000
     86 H         -24.0069   -4.2679  -33.3771 H      401  SV6401      0.0000
     87 H         -22.3288   -4.5951  -32.8358 H      401  SV6401      0.0000
     88 H         -24.3856   -3.9252  -24.0083 H      401  SV6401      0.0000
     89 H         -20.9396   -3.3210  -27.6099 H      401  SV6401      0.0000
     90 H         -22.3598   -5.1952  -25.5921 H      401  SV6401      0.0000
     91 H         -21.3913   -2.4082  -24.8981 H      401  SV6401      0.0000
     92 H         -20.0759   -4.6766  -24.3233 H      401  SV6401      0.0000
     93 H         -19.4905   -4.1113  -25.9210 H      401  SV6401      0.0000
     94 H         -20.4183   -6.3224  -26.9183 H      401  SV6401      0.0000
     95 H         -20.8707   -6.8371  -25.2645 H      401  SV6401      0.0000
     96 H         -18.7046   -7.8526  -25.9434 H      401  SV6401      0.0000
     97 H         -18.4304   -6.7168  -24.5872 H      401  SV6401      0.0000
     98 H         -18.0007   -6.2352  -26.2609 H      401  SV6401      0.0000
     99 H         -24.0322   -3.7630  -21.0221 H      401  SV6401      0.0000
    100 H         -25.9748   -5.4051  -22.8208 H      401  SV6401      0.0000
    101 H         -26.0914   -5.1473  -20.9649 H      401  SV6401      0.0000
    102 H         -23.8978   -6.2249  -20.6774 H      401  SV6401      0.0000
    103 H         -23.7836   -6.4836  -22.5345 H      401  SV6401      0.0000
    104 H         -23.5032   -1.7486  -25.1033 H      401  SV6401      0.0000
@<TRIPOS>BOND
     1     1     4    1
     2     1     5   ar
     3     1     7   ar
     4     2     3   ar
     5     2     7   ar
     6     2    50    1
     7     3     8   ar
     8     3    51    1
     9     4     6    2
    10     4     9    1
    11     5     8   ar
    12     5    52    1
    13     9    10    1
    14     9    53    1
    15    10    11    1
    16    10    13    1
    17    10    54    1
    18    11    12    2
    19    11    19    1
    20    13    14    1
    21    13    18    1
    22    13    55    1
    23    14    15    1
    24    14    56    1
    25    14    57    1
    26    15    16    1
    27    15    58    1
    28    15    59    1
    29    16    17    1
    30    16    60    1
    31    16    61    1
    32    17    18    1
    33    17    62    1
    34    17    63    1
    35    18    64    1
    36    18    65    1
    37    19    20    1
    38    19    66    1
    39    20    21    1
    40    20    25    1
    41    20    67    1
    42    21    22    1
    43    21    23    1
    44    21    24    1
    45    22    68    1
    46    22    69    1
    47    22    70    1
    48    23    71    1
    49    23    72    1
    50    23    73    1
    51    24    74    1
    52    24    75    1
    53    24    76    1
    54    25    26    2
    55    25    28    1
    56    27    29    2
    57    27    30    1
    58    27    38    1
    59    28    30    1
    60    28    35    1
    61    30    31    1
    62    30    77    1
    63    31    32    1
    64    31    33    1
    65    31    78    1
    66    32    35    1
    67    32    36    1
    68    32    79    1
    69    33    34    1
    70    33    80    1
    71    33    81    1
    72    34    36    1
    73    34    82    1
    74    34    83    1
    75    35    84    1
    76    35    85    1
    77    36    86    1
    78    36    87    1
    79    37    44    1
    80    37    45    1
    81    37    88    1
    82    38    39    1
    83    38    89    1
    84    39    40    1
    85    39    41    1
    86    39    90    1
    87    40    44    1
    88    40    48    1
    89    40    91    1
    90    41    42    1
    91    41    92    1
    92    41    93    1
    93    42    43    1
    94    42    94    1
    95    42    95    1
    96    43    96    1
    97    43    97    1
    98    43    98    1
    99    44    49    2
   100    45    46    1
   101    45    47    1
   102    45    99    1
   103    46    47    1
   104    46   100    1
   105    46   101    1
   106    47   102    1
   107    47   103    1
   108    48   104    1

