DMS_1_A_402
  -ISIS-            3D

 10  9  0  0  0  0  0  0  0  0  1 V2000
    6.1490   -1.0580   -6.3180 S   0  0  0  0  0
    7.0650   -0.8140   -7.4560 O   0  0  0  0  0
    7.1260   -0.9480   -4.8140 C   0  0  0  0  0
    5.8210   -2.7910   -6.2650 C   0  0  0  0  0
    6.5065   -1.2422   -3.9422 H   0  0  0  0  0
    7.4672    0.0985   -4.6764 H   0  0  0  0  0
    8.0117   -1.6125   -4.8822 H   0  0  0  0  0
    5.2369   -3.0368   -5.3547 H   0  0  0  0  0
    6.7705   -3.3647   -6.2605 H   0  0  0  0  0
    5.2296   -3.0805   -7.1576 H   0  0  0  0  0
  1  2  2  0  0  0
  1  3  1  0  0  0
  1  4  1  0  0  0
  3  5  1  0  0  0
  3  6  1  0  0  0
  3  7  1  0  0  0
  4  8  1  0  0  0
  4  9  1  0  0  0
  4 10  1  0  0  0
M  END
$$$$
