@<TRIPOS>MOLECULE
DMS_1_A_403
 10 9 0 0 0
SMALL
NO_CHARGES

@<TRIPOS>ATOM
      1 S           2.4770  -18.8290    8.1210 S.o    403  DMS403      0.0000
      2 O           3.7560  -18.7870    8.9700 O.2    403  DMS403      0.0000
      3 C1          1.1850  -18.1760    9.1620 C.3    403  DMS403      0.0000
      4 C2          1.9440  -20.5100    8.1810 C.3    403  DMS403      0.0000
      5 H           0.1982  -18.3285    8.6790 H      403  DMS403      0.0000
      6 H           1.3479  -17.0884    9.3057 H      403  DMS403      0.0000
      7 H           1.1947  -18.6752   10.1527 H      403  DMS403      0.0000
      8 H           0.9361  -20.6040    7.7274 H      403  DMS403      0.0000
      9 H           1.9130  -20.8729    9.2292 H      403  DMS403      0.0000
     10 H           2.6527  -21.1394    7.6049 H      403  DMS403      0.0000
@<TRIPOS>BOND
     1     1     2    2
     2     1     3    1
     3     1     4    1
     4     3     5    1
     5     3     6    1
     6     3     7    1
     7     4     8    1
     8     4     9    1
     9     4    10    1

