@<TRIPOS>MOLECULE
TLD_1_A_902
 15 15 0 0 0
SMALL
NO_CHARGES

@<TRIPOS>ATOM
      1 C1         18.5010   -6.0130   26.1120 C.ar   902  TLD902      0.0000
      2 C2         17.7740   -5.4730   24.9260 C.ar   902  TLD902      0.0000
      3 C3         17.9250   -4.1350   24.5660 C.ar   902  TLD902      0.0000
      4 C4         18.8100   -3.2550   25.3750 C.ar   902  TLD902      0.0000
      5 C5         19.4650   -3.7650   26.4600 C.ar   902  TLD902      0.0000
      6 C6         19.3010   -5.2040   26.8460 C.ar   902  TLD902      0.0000
      7 C13        20.3530   -2.8750   27.2820 C.3    902  TLD902      0.0000
      8 S15        16.7180   -6.5950   23.9980 S.3    902  TLD902      0.0000
      9 S17        17.0640   -3.4260   23.1550 S.3    902  TLD902      0.0000
     10 H          18.3790   -7.0739   26.3881 H      902  TLD902      0.0000
     11 H          18.9278   -2.1955   25.0929 H      902  TLD902      0.0000
     12 H          19.8355   -5.5975   27.7267 H      902  TLD902      0.0000
     13 H          20.8186   -3.4210   28.1315 H      902  TLD902      0.0000
     14 H          19.7805   -2.0229   27.7111 H      902  TLD902      0.0000
     15 H          21.1794   -2.4545   26.6670 H      902  TLD902      0.0000
@<TRIPOS>BOND
     1     1     2   ar
     2     1     6   ar
     3     1    10    1
     4     2     3   ar
     5     2     8    1
     6     3     4   ar
     7     3     9    1
     8     4     5   ar
     9     4    11    1
    10     5     6   ar
    11     5     7    1
    12     6    12    1
    13     7    13    1
    14     7    14    1
    15     7    15    1

