@<TRIPOS>MOLECULE
DMS_2_A_402
 10 9 0 0 0
SMALL
NO_CHARGES

@<TRIPOS>ATOM
      1 S           2.3930    4.8230  -32.1080 S.o    402  DMS402      0.0000
      2 O           2.1290    5.7990  -31.0000 O.2    402  DMS402      0.0000
      3 C1          0.8120    4.4280  -32.8940 C.3    402  DMS402      0.0000
      4 C2          2.7920    3.2040  -31.3900 C.3    402  DMS402      0.0000
      5 H           0.9653    3.6443  -33.6638 H      402  DMS402      0.0000
      6 H           0.4061    5.3397  -33.3781 H      402  DMS402      0.0000
      7 H           0.0916    4.0655  -32.1323 H      402  DMS402      0.0000
      8 H           2.8972    2.4543  -32.2006 H      402  DMS402      0.0000
      9 H           1.9861    2.8910  -30.6950 H      402  DMS402      0.0000
     10 H           3.7488    3.2771  -30.8338 H      402  DMS402      0.0000
@<TRIPOS>BOND
     1     1     2    2
     2     1     3    1
     3     1     4    1
     4     3     5    1
     5     3     6    1
     6     3     7    1
     7     4     8    1
     8     4     9    1
     9     4    10    1

