DMS_1_A_403
  -ISIS-            3D

 10  9  0  0  0  0  0  0  0  0  1 V2000
  -10.0880   16.0420   18.7000 S   0  0  0  0  0
  -11.1060   17.0390   18.2380 O   0  0  0  0  0
  -10.3690   15.6290   20.4480 C   0  0  0  0  0
   -8.4740   16.8640   18.8210 C   0  0  0  0  0
   -9.5688   14.9468   20.8010 H   0  0  0  0  0
  -11.3515   15.1245   20.5504 H   0  0  0  0  0
  -10.3656   16.5554   21.0582 H   0  0  0  0  0
   -7.7240   16.1514   19.2208 H   0  0  0  0  0
   -8.5489   17.7428   19.4938 H   0  0  0  0  0
   -8.1580   17.1992   17.8120 H   0  0  0  0  0
  1  2  2  0  0  0
  1  3  1  0  0  0
  1  4  1  0  0  0
  3  5  1  0  0  0
  3  6  1  0  0  0
  3  7  1  0  0  0
  4  8  1  0  0  0
  4  9  1  0  0  0
  4 10  1  0  0  0
M  END
$$$$
