@<TRIPOS>MOLECULE
AG7_1_A_401
 84 86 0 0 0
SMALL
NO_CHARGES

@<TRIPOS>ATOM
      1 C01        19.6050   15.1000   28.4470 C.2    401  AG7401      0.0000
      2 C02        20.4450   15.6510   27.2560 C.3    401  AG7401      0.0000
      3 O03        18.4740   14.7290   28.2870 O.2    401  AG7401      0.0000
      4 C04        19.6160   15.5120   25.9810 C.3    401  AG7401      0.0000
      5 C05        20.3920   16.1770   24.8510 C.3    401  AG7401      0.0000
      6 C06        19.6450   15.9010   23.5100 C.ar   401  AG7401      0.0000
      7 C07        20.3520   15.1670   22.3640 C.ar   401  AG7401      0.0000
      8 C08        19.6050   14.9180   21.0400 C.ar   401  AG7401      0.0000
      9 C09        18.1360   15.3780   20.8990 C.ar   401  AG7401      0.0000
     10 C10        17.4230   16.1170   22.0440 C.ar   401  AG7401      0.0000
     11 C11        18.1950   16.3820   23.3510 C.ar   401  AG7401      0.0000
     12 N12        18.0280   13.5040   25.3740 N.am   401  AG7401      0.0000
     13 C13        17.8140   12.0750   25.0710 C.3    401  AG7401      0.0000
     14 C14        16.7810   11.4470   25.9770 C.3    401  AG7401      0.0000
     15 C15        17.4300   11.0610   27.2430 C.3    401  AG7401      0.0000
     16 C16        16.4790   10.0170   28.0270 C.2    401  AG7401      0.0000
     17 N17        17.2490    9.0260   28.5260 N.am   401  AG7401      0.0000
     18 O18        15.3070   10.0370   28.1020 O.2    401  AG7401      0.0000
     19 C19        17.3340   11.9870   23.6060 C.3    401  AG7401      0.0000
     20 C20        18.5060   12.3080   22.6310 C.3    401  AG7401      0.0000
     21 C21        18.8130   11.1230   21.6590 C.2    401  AG7401      0.0000
     22 O22        20.1580   10.8010   21.3520 O.3    401  AG7401      0.0000
     23 O23        17.9630   10.4690   21.1460 O.2    401  AG7401      0.0000
     24 C47        19.3940   14.0110   25.6890 C.2    401  AG7401      0.0000
     25 O48        20.3230   13.2670   25.7180 O.2    401  AG7401      0.0000
     26 C50        20.9330   10.4380   22.4910 C.3    401  AG7401      0.0000
     27 C53        21.9100   11.5770   22.8490 C.3    401  AG7401      0.0000
     28 C57        20.2210   15.0100   29.8510 C.3    401  AG7401      0.0000
     29 N58        19.4480   15.8590   30.7460 N.am   401  AG7401      0.0000
     30 C59        19.5140   17.3170   30.5970 C.2    401  AG7401      0.0000
     31 O60        20.1640   17.7990   29.7470 O.2    401  AG7401      0.0000
     32 C78        20.1980   13.5570   30.3030 C.3    401  AG7401      0.0000
     33 C81        20.7460   12.6590   29.2160 C.3    401  AG7401      0.0000
     34 F1         17.4710   15.1500   19.7270 F      401  AG7401      0.0000
     35 C82        21.0630   13.5070   31.5700 C.3    401  AG7401      0.0000
     36 C83        18.7460    9.3900   28.1760 C.3    401  AG7401      0.0000
     37 C84        18.6820   10.2000   27.0690 C.3    401  AG7401      0.0000
     38 C1         18.6950   18.2420   31.5100 C.ar   401  AG7401      0.0000
     39 C2         17.7290   19.1170   31.0690 C.ar   401  AG7401      0.0000
     40 C3         17.2070   19.7620   32.1570 C.ar   401  AG7401      0.0000
     41 O4         17.8370   19.2930   33.2530 O.3    401  AG7401      0.0000
     42 N5         18.7710   18.3400   32.8350 N.ar   401  AG7401      0.0000
     43 C4         16.0980   20.8340   32.1290 C.3    401  AG7401      0.0000
     44 H          21.4099   15.1017   27.1804 H      401  AG7401      0.0000
     45 H          20.6869   16.7210   27.4429 H      401  AG7401      0.0000
     46 H          18.6337   16.0219   26.1132 H      401  AG7401      0.0000
     47 H          21.4296   15.7789   24.7890 H      401  AG7401      0.0000
     48 H          20.4649   17.2766   25.0102 H      401  AG7401      0.0000
     49 H          21.3938   14.8282   22.4783 H      401  AG7401      0.0000
     50 H          20.1075   14.4085   20.2060 H      401  AG7401      0.0000
     51 H          16.3836   16.4536   21.9282 H      401  AG7401      0.0000
     52 H          17.6930   16.9227   24.1695 H      401  AG7401      0.0000
     53 H          17.2413   14.1675   25.3717 H      401  AG7401      0.0000
     54 H          18.7687   11.5098   25.1140 H      401  AG7401      0.0000
     55 H          16.3610   10.5349   25.4934 H      401  AG7401      0.0000
     56 H          15.9255   12.1382   26.1512 H      401  AG7401      0.0000
     57 H          17.6331   11.9388   27.8992 H      401  AG7401      0.0000
     58 H          16.8990    8.2060   29.0358 H      401  AG7401      0.0000
     59 H          16.4807   12.6827   23.4337 H      401  AG7401      0.0000
     60 H          16.9529   10.9620   23.3974 H      401  AG7401      0.0000
     61 H          19.4075   12.6358   23.1778 H      401  AG7401      0.0000
     62 H          18.1854   13.1627   22.0042 H      401  AG7401      0.0000
     63 H          21.5160    9.5221   22.2579 H      401  AG7401      0.0000
     64 H          20.3020   10.1894   23.3701 H      401  AG7401      0.0000
     65 H          22.5739   11.2823   23.6907 H      401  AG7401      0.0000
     66 H          21.3992   12.5094   23.1573 H      401  AG7401      0.0000
     67 H          22.5667   11.8310   21.9887 H      401  AG7401      0.0000
     68 H          21.2766   15.3654   29.7902 H      401  AG7401      0.0000
     69 H          18.8418   15.4624   31.4751 H      401  AG7401      0.0000
     70 H          19.1563   13.2388   30.5486 H      401  AG7401      0.0000
     71 H          20.8616   11.6138   29.5794 H      401  AG7401      0.0000
     72 H          21.7494   12.9874   28.8641 H      401  AG7401      0.0000
     73 H          20.0815   12.6094   28.3289 H      401  AG7401      0.0000
     74 H          21.0986   12.4761   31.9884 H      401  AG7401      0.0000
     75 H          20.6714   14.1620   32.3794 H      401  AG7401      0.0000
     76 H          22.1158   13.8116   31.3755 H      401  AG7401      0.0000
     77 H          19.3509    8.4728   27.9921 H      401  AG7401      0.0000
     78 H          19.2123    9.9137   29.0420 H      401  AG7401      0.0000
     79 H          19.6079   10.8043   26.9447 H      401  AG7401      0.0000
     80 H          18.5749    9.5649   26.1573 H      401  AG7401      0.0000
     81 H          17.4312   19.2691   30.0244 H      401  AG7401      0.0000
     82 H          15.8610   21.1884   33.1563 H      401  AG7401      0.0000
     83 H          15.1643   20.4257   31.6831 H      401  AG7401      0.0000
     84 H          16.4139   21.7143   31.5268 H      401  AG7401      0.0000
@<TRIPOS>BOND
     1     1     2    1
     2     1     3    2
     3     1    28    1
     4     2     4    1
     5     2    44    1
     6     2    45    1
     7     4     5    1
     8     4    24    1
     9     4    46    1
    10     5     6    1
    11     5    47    1
    12     5    48    1
    13     6     7   ar
    14     6    11   ar
    15     7     8   ar
    16     7    49    1
    17     8     9   ar
    18     8    50    1
    19     9    10   ar
    20     9    34    1
    21    10    11   ar
    22    10    51    1
    23    11    52    1
    24    12    13    1
    25    12    24    1
    26    12    53    1
    27    13    14    1
    28    13    19    1
    29    13    54    1
    30    14    15    1
    31    14    55    1
    32    14    56    1
    33    15    16    1
    34    15    37    1
    35    15    57    1
    36    16    17    1
    37    16    18    2
    38    17    36    1
    39    17    58    1
    40    19    20    1
    41    19    59    1
    42    19    60    1
    43    20    21    1
    44    20    61    1
    45    20    62    1
    46    21    22    1
    47    21    23    2
    48    22    26    1
    49    24    25    2
    50    26    27    1
    51    26    63    1
    52    26    64    1
    53    27    65    1
    54    27    66    1
    55    27    67    1
    56    28    29    1
    57    28    32    1
    58    28    68    1
    59    29    30    1
    60    29    69    1
    61    30    31    2
    62    30    38    1
    63    32    33    1
    64    32    35    1
    65    32    70    1
    66    33    71    1
    67    33    72    1
    68    33    73    1
    69    35    74    1
    70    35    75    1
    71    35    76    1
    72    36    37    1
    73    36    77    1
    74    36    78    1
    75    37    79    1
    76    37    80    1
    77    38    39   ar
    78    38    42   ar
    79    39    40   ar
    80    39    81    1
    81    40    41   ar
    82    40    43    1
    83    41    42   ar
    84    43    82    1
    85    43    83    1
    86    43    84    1

