AG7_1_A_401
  -ISIS-            3D

 84 86  0  0  0  0  0  0  0  0  1 V2000
   19.6050   15.1000   28.4470 C   0  0  0  0  0
   20.4450   15.6510   27.2560 C   0  0  0  0  0
   18.4740   14.7290   28.2870 O   0  0  0  0  0
   19.6160   15.5120   25.9810 C   0  0  0  0  0
   20.3920   16.1770   24.8510 C   0  0  0  0  0
   19.6450   15.9010   23.5100 C   0  0  0  0  0
   20.3520   15.1670   22.3640 C   0  0  0  0  0
   19.6050   14.9180   21.0400 C   0  0  0  0  0
   18.1360   15.3780   20.8990 C   0  0  0  0  0
   17.4230   16.1170   22.0440 C   0  0  0  0  0
   18.1950   16.3820   23.3510 C   0  0  0  0  0
   18.0280   13.5040   25.3740 N   0  0  0  0  0
   17.8140   12.0750   25.0710 C   0  0  0  0  0
   16.7810   11.4470   25.9770 C   0  0  0  0  0
   17.4300   11.0610   27.2430 C   0  0  0  0  0
   16.4790   10.0170   28.0270 C   0  0  0  0  0
   17.2490    9.0260   28.5260 N   0  0  0  0  0
   15.3070   10.0370   28.1020 O   0  0  0  0  0
   17.3340   11.9870   23.6060 C   0  0  0  0  0
   18.5060   12.3080   22.6310 C   0  0  0  0  0
   18.8130   11.1230   21.6590 C   0  0  0  0  0
   20.1580   10.8010   21.3520 O   0  0  0  0  0
   17.9630   10.4690   21.1460 O   0  0  0  0  0
   19.3940   14.0110   25.6890 C   0  0  0  0  0
   20.3230   13.2670   25.7180 O   0  0  0  0  0
   20.9330   10.4380   22.4910 C   0  0  0  0  0
   21.9100   11.5770   22.8490 C   0  0  0  0  0
   20.2210   15.0100   29.8510 C   0  0  0  0  0
   19.4480   15.8590   30.7460 N   0  0  0  0  0
   19.5140   17.3170   30.5970 C   0  0  0  0  0
   20.1640   17.7990   29.7470 O   0  0  0  0  0
   20.1980   13.5570   30.3030 C   0  0  0  0  0
   20.7460   12.6590   29.2160 C   0  0  0  0  0
   17.4710   15.1500   19.7270 F   0  0  0  0  0
   21.0630   13.5070   31.5700 C   0  0  0  0  0
   18.7460    9.3900   28.1760 C   0  0  0  0  0
   18.6820   10.2000   27.0690 C   0  0  0  0  0
   18.6950   18.2420   31.5100 C   0  0  0  0  0
   17.7290   19.1170   31.0690 C   0  0  0  0  0
   17.2070   19.7620   32.1570 C   0  0  0  0  0
   17.8370   19.2930   33.2530 O   0  0  0  0  0
   18.7710   18.3400   32.8350 N   0  0  0  0  0
   16.0980   20.8340   32.1290 C   0  0  0  0  0
   21.4099   15.1017   27.1804 H   0  0  0  0  0
   20.6869   16.7210   27.4429 H   0  0  0  0  0
   18.6337   16.0219   26.1132 H   0  0  0  0  0
   21.4296   15.7789   24.7890 H   0  0  0  0  0
   20.4649   17.2766   25.0102 H   0  0  0  0  0
   21.3938   14.8282   22.4783 H   0  0  0  0  0
   20.1075   14.4085   20.2060 H   0  0  0  0  0
   16.3836   16.4536   21.9282 H   0  0  0  0  0
   17.6930   16.9227   24.1695 H   0  0  0  0  0
   17.2413   14.1675   25.3717 H   0  0  0  0  0
   18.7687   11.5098   25.1140 H   0  0  0  0  0
   16.3610   10.5349   25.4934 H   0  0  0  0  0
   15.9255   12.1382   26.1512 H   0  0  0  0  0
   17.6331   11.9388   27.8992 H   0  0  0  0  0
   16.8990    8.2060   29.0358 H   0  0  0  0  0
   16.4807   12.6827   23.4337 H   0  0  0  0  0
   16.9529   10.9620   23.3974 H   0  0  0  0  0
   19.4075   12.6358   23.1778 H   0  0  0  0  0
   18.1854   13.1627   22.0042 H   0  0  0  0  0
   21.5160    9.5221   22.2579 H   0  0  0  0  0
   20.3020   10.1894   23.3701 H   0  0  0  0  0
   22.5739   11.2823   23.6907 H   0  0  0  0  0
   21.3992   12.5094   23.1573 H   0  0  0  0  0
   22.5667   11.8310   21.9887 H   0  0  0  0  0
   21.2766   15.3654   29.7902 H   0  0  0  0  0
   18.8418   15.4624   31.4751 H   0  0  0  0  0
   19.1563   13.2388   30.5486 H   0  0  0  0  0
   20.8616   11.6138   29.5794 H   0  0  0  0  0
   21.7494   12.9874   28.8641 H   0  0  0  0  0
   20.0815   12.6094   28.3289 H   0  0  0  0  0
   21.0986   12.4761   31.9884 H   0  0  0  0  0
   20.6714   14.1620   32.3794 H   0  0  0  0  0
   22.1158   13.8116   31.3755 H   0  0  0  0  0
   19.3509    8.4728   27.9921 H   0  0  0  0  0
   19.2123    9.9137   29.0420 H   0  0  0  0  0
   19.6079   10.8043   26.9447 H   0  0  0  0  0
   18.5749    9.5649   26.1573 H   0  0  0  0  0
   17.4312   19.2691   30.0244 H   0  0  0  0  0
   15.8610   21.1884   33.1563 H   0  0  0  0  0
   15.1643   20.4257   31.6831 H   0  0  0  0  0
   16.4139   21.7143   31.5268 H   0  0  0  0  0
  1  2  1  0  0  0
  1  3  2  0  0  0
  1 28  1  0  0  0
  2  4  1  0  0  0
  2 44  1  0  0  0
  2 45  1  0  0  0
  4  5  1  0  0  0
  4 24  1  0  0  0
  4 46  1  0  0  0
  5  6  1  0  0  0
  5 47  1  0  0  0
  5 48  1  0  0  0
  6  7  1  0  0  0
  6 11  1  0  0  0
  7  8  1  0  0  0
  7 49  1  0  0  0
  8  9  1  0  0  0
  8 50  1  0  0  0
  9 10  1  0  0  0
  9 34  1  0  0  0
 10 11  1  0  0  0
 10 51  1  0  0  0
 11 52  1  0  0  0
 12 13  1  0  0  0
 12 24  1  0  0  0
 12 53  1  0  0  0
 13 14  1  0  0  0
 13 19  1  0  0  0
 13 54  1  0  0  0
 14 15  1  0  0  0
 14 55  1  0  0  0
 14 56  1  0  0  0
 15 16  1  0  0  0
 15 37  1  0  0  0
 15 57  1  0  0  0
 16 17  1  0  0  0
 16 18  2  0  0  0
 17 36  1  0  0  0
 17 58  1  0  0  0
 19 20  1  0  0  0
 19 59  1  0  0  0
 19 60  1  0  0  0
 20 21  1  0  0  0
 20 61  1  0  0  0
 20 62  1  0  0  0
 21 22  1  0  0  0
 21 23  2  0  0  0
 22 26  1  0  0  0
 24 25  2  0  0  0
 26 27  1  0  0  0
 26 63  1  0  0  0
 26 64  1  0  0  0
 27 65  1  0  0  0
 27 66  1  0  0  0
 27 67  1  0  0  0
 28 29  1  0  0  0
 28 32  1  0  0  0
 28 68  1  0  0  0
 29 30  1  0  0  0
 29 69  1  0  0  0
 30 31  2  0  0  0
 30 38  1  0  0  0
 32 33  1  0  0  0
 32 35  1  0  0  0
 32 70  1  0  0  0
 33 71  1  0  0  0
 33 72  1  0  0  0
 33 73  1  0  0  0
 35 74  1  0  0  0
 35 75  1  0  0  0
 35 76  1  0  0  0
 36 37  1  0  0  0
 36 77  1  0  0  0
 36 78  1  0  0  0
 37 79  1  0  0  0
 37 80  1  0  0  0
 38 39  1  0  0  0
 38 42  2  0  0  0
 39 40  2  0  0  0
 39 81  1  0  0  0
 40 41  1  0  0  0
 40 43  1  0  0  0
 41 42  1  0  0  0
 43 82  1  0  0  0
 43 83  1  0  0  0
 43 84  1  0  0  0
M  END
$$$$
