DMS_2_A_401
  -ISIS-            3D

 10  9  0  0  0  0  0  0  0  0  1 V2000
   -6.6790   -0.9920    5.8890 S   0  0  0  0  0
   -7.6270   -0.8700    7.0390 O   0  0  0  0  0
   -7.6490   -0.9810    4.3500 C   0  0  0  0  0
   -5.9660   -2.6600    5.8280 C   0  0  0  0  0
   -6.9710   -1.1256    3.4842 H   0  0  0  0  0
   -8.1662   -0.0048    4.2508 H   0  0  0  0  0
   -8.4013   -1.7959    4.3744 H   0  0  0  0  0
   -5.3258   -2.7566    4.9275 H   0  0  0  0  0
   -6.7783   -3.4144    5.7905 H   0  0  0  0  0
   -5.3498   -2.8273    6.7350 H   0  0  0  0  0
  1  2  2  0  0  0
  1  3  1  0  0  0
  1  4  1  0  0  0
  3  5  1  0  0  0
  3  6  1  0  0  0
  3  7  1  0  0  0
  4  8  1  0  0  0
  4  9  1  0  0  0
  4 10  1  0  0  0
M  END
$$$$
