@<TRIPOS>MOLECULE
DMS_1_A_401
 10 9 0 0 0
SMALL
NO_CHARGES

@<TRIPOS>ATOM
      1 S           6.6790   -0.9920   -5.8890 S.o    401  DMS401      0.0000
      2 O           7.6270   -0.8700   -7.0390 O.2    401  DMS401      0.0000
      3 C1          7.6490   -0.9810   -4.3500 C.3    401  DMS401      0.0000
      4 C2          5.9660   -2.6600   -5.8280 C.3    401  DMS401      0.0000
      5 H           6.9710   -1.1256   -3.4842 H      401  DMS401      0.0000
      6 H           8.1662   -0.0048   -4.2508 H      401  DMS401      0.0000
      7 H           8.4013   -1.7959   -4.3744 H      401  DMS401      0.0000
      8 H           5.3258   -2.7566   -4.9275 H      401  DMS401      0.0000
      9 H           6.7783   -3.4144   -5.7905 H      401  DMS401      0.0000
     10 H           5.3498   -2.8273   -6.7350 H      401  DMS401      0.0000
@<TRIPOS>BOND
     1     1     2    2
     2     1     3    1
     3     1     4    1
     4     3     5    1
     5     3     6    1
     6     3     7    1
     7     4     8    1
     8     4     9    1
     9     4    10    1

