@<TRIPOS>MOLECULE
SV6_2_A_402
 104 108 0 0 0
SMALL
NO_CHARGES

@<TRIPOS>ATOM
      1 CBN       -11.8680    8.3310  -26.5080 C.ar   402  SV6402      0.0000
      2 CBO       -12.6010    7.9150  -28.6480 C.ar   402  SV6402      0.0000
      3 CBP       -12.5390    9.2930  -28.9370 C.ar   402  SV6402      0.0000
      4 CBB       -11.4380    7.8220  -25.1630 C.2    402  SV6402      0.0000
      5 CBQ       -11.7820    9.7150  -26.8040 C.ar   402  SV6402      0.0000
      6 OBW       -11.2280    8.6120  -24.2570 O.2    402  SV6402      0.0000
      7 NAF       -12.2550    7.4230  -27.4370 N.ar   402  SV6402      0.0000
      8 NAG       -12.1400   10.1950  -28.0200 N.ar   402  SV6402      0.0000
      9 NAD       -11.2490    6.4740  -24.9950 N.am   402  SV6402      0.0000
     10 CAY       -10.7640    5.9070  -23.7390 C.3    402  SV6402      0.0000
     11 CAX        -9.9380    4.7200  -24.2900 C.2    402  SV6402      0.0000
     12 OBU       -10.1320    4.2850  -25.4490 O.2    402  SV6402      0.0000
     13 CBH       -11.8990    5.3200  -22.8240 C.3    402  SV6402      0.0000
     14 CBI       -12.7340    4.2290  -23.5140 C.3    402  SV6402      0.0000
     15 CBJ       -13.9510    3.7450  -22.7250 C.3    402  SV6402      0.0000
     16 CBK       -14.7700    4.8500  -22.0630 C.3    402  SV6402      0.0000
     17 CBL       -13.8740    5.8240  -21.3220 C.3    402  SV6402      0.0000
     18 CBM       -12.8490    6.4030  -22.2810 C.3    402  SV6402      0.0000
     19 NAC        -8.9850    4.1260  -23.4830 N.am   402  SV6402      0.0000
     20 CAW        -8.2440    2.9900  -23.9880 C.3    402  SV6402      0.0000
     21 CAZ        -6.6960    3.3060  -23.9080 C.3    402  SV6402      0.0000
     22 CBC        -5.9090    2.0770  -24.3750 C.3    402  SV6402      0.0000
     23 CBD        -6.3430    4.4790  -24.8460 C.3    402  SV6402      0.0000
     24 CBA        -6.2350    3.7200  -22.5050 C.3    402  SV6402      0.0000
     25 CAV        -8.6360    1.7070  -23.1720 C.2    402  SV6402      0.0000
     26 OBT        -8.4320    1.6650  -21.9580 O.2    402  SV6402      0.0000
     27 C          -8.3210   -1.4180  -22.9910 C.2    402  SV6402      0.0000
     28 N          -9.2720    0.6110  -23.7500 N.am   402  SV6402      0.0000
     29 O          -7.7110   -1.6940  -24.0170 O.2    402  SV6402      0.0000
     30 CA         -9.6370   -0.6280  -23.0520 C.3    402  SV6402      0.0000
     31 CB        -10.6510   -1.3590  -23.9610 C.3    402  SV6402      0.0000
     32 CG        -10.8190   -0.4460  -25.1870 C.3    402  SV6402      0.0000
     33 CBE       -12.0240   -1.4390  -23.3030 C.3    402  SV6402      0.0000
     34 CBF       -12.6950   -0.1020  -23.6290 C.3    402  SV6402      0.0000
     35 CD1        -9.5910    0.4700  -25.1740 C.3    402  SV6402      0.0000
     36 CD2       -12.1350    0.3160  -24.9910 C.3    402  SV6402      0.0000
     37 NAA        -5.0190   -5.3370  -22.2730 N.am   402  SV6402      0.0000
     38 NAE        -7.7810   -1.7480  -21.7610 N.am   402  SV6402      0.0000
     39 CAH        -6.4920   -2.4360  -21.7260 C.3    402  SV6402      0.0000
     40 CAI        -6.6700   -3.8560  -21.1010 C.3    402  SV6402      0.0000
     41 CAJ        -5.4530   -1.6220  -20.9080 C.3    402  SV6402      0.0000
     42 CAK        -5.4330   -0.1180  -21.2110 C.3    402  SV6402      0.0000
     43 CAL        -4.0390    0.5000  -21.0720 C.3    402  SV6402      0.0000
     44 CAM        -5.3440   -4.6380  -21.1180 C.2    402  SV6402      0.0000
     45 CAN        -3.8260   -6.1030  -22.4880 C.3    402  SV6402      0.0000
     46 CAO        -3.3970   -6.4200  -23.9180 C.3    402  SV6402      0.0000
     47 CAP        -2.6100   -5.4140  -23.1100 C.3    402  SV6402      0.0000
     48 OBR        -7.6050   -4.5400  -21.8820 O.3    402  SV6402      0.0000
     49 OBS        -4.6060   -4.5850  -20.1380 O.2    402  SV6402      0.0000
     50 H         -12.9318    7.2031  -29.4221 H      402  SV6402      0.0000
     51 H         -12.8266    9.6613  -29.9356 H      402  SV6402      0.0000
     52 H         -11.4348   10.4336  -26.0446 H      402  SV6402      0.0000
     53 H         -11.4424    5.8570  -25.7992 H      402  SV6402      0.0000
     54 H         -10.1035    6.6055  -23.1774 H      402  SV6402      0.0000
     55 H         -11.3949    4.8501  -21.9432 H      402  SV6402      0.0000
     56 H         -12.0901    3.3526  -23.7522 H      402  SV6402      0.0000
     57 H         -13.0989    4.6227  -24.4909 H      402  SV6402      0.0000
     58 H         -13.5918    3.0546  -21.9254 H      402  SV6402      0.0000
     59 H         -14.6080    3.1309  -23.3840 H      402  SV6402      0.0000
     60 H         -15.5157    4.4054  -21.3640 H      402  SV6402      0.0000
     61 H         -15.3523    5.3957  -22.8415 H      402  SV6402      0.0000
     62 H         -13.3666    5.3155  -20.4702 H      402  SV6402      0.0000
     63 H         -14.4899    6.6439  -20.8846 H      402  SV6402      0.0000
     64 H         -13.3650    6.9190  -23.1226 H      402  SV6402      0.0000
     65 H         -12.2516    7.1814  -21.7517 H      402  SV6402      0.0000
     66 H          -8.8321    4.4607  -22.5236 H      402  SV6402      0.0000
     67 H          -8.4641    2.7999  -25.0599 H      402  SV6402      0.0000
     68 H          -4.8094    2.2253  -24.2903 H      402  SV6402      0.0000
     69 H          -6.1214    1.8341  -25.4401 H      402  SV6402      0.0000
     70 H          -6.1614    1.1697  -23.7928 H      402  SV6402      0.0000
     71 H          -5.2510    4.6938  -24.8533 H      402  SV6402      0.0000
     72 H          -6.8561    5.4208  -24.5495 H      402  SV6402      0.0000
     73 H          -6.6379    4.2689  -25.8984 H      402  SV6402      0.0000
     74 H          -5.1407    3.9216  -22.4797 H      402  SV6402      0.0000
     75 H          -6.4194    2.9323  -21.7448 H      402  SV6402      0.0000
     76 H          -6.7283    4.6479  -22.1433 H      402  SV6402      0.0000
     77 H         -10.0400   -0.4371  -22.0331 H      402  SV6402      0.0000
     78 H         -10.2836   -2.3722  -24.2442 H      402  SV6402      0.0000
     79 H         -10.8584   -1.0391  -26.1309 H      402  SV6402      0.0000
     80 H         -11.9766   -1.6408  -22.2104 H      402  SV6402      0.0000
     81 H         -12.6084   -2.2669  -23.7680 H      402  SV6402      0.0000
     82 H         -12.4153    0.6545  -22.8596 H      402  SV6402      0.0000
     83 H         -13.8052   -0.1799  -23.6354 H      402  SV6402      0.0000
     84 H          -8.7523   -0.0067  -25.7302 H      402  SV6402      0.0000
     85 H          -9.8214    1.4281  -25.6853 H      402  SV6402      0.0000
     86 H         -12.8530    0.0261  -25.7929 H      402  SV6402      0.0000
     87 H         -12.0081    1.4184  -25.0556 H      402  SV6402      0.0000
     88 H          -5.7485   -5.2915  -23.0016 H      402  SV6402      0.0000
     89 H          -8.2645   -1.4847  -20.8912 H      402  SV6402      0.0000
     90 H          -6.0693   -2.5660  -22.7492 H      402  SV6402      0.0000
     91 H          -7.0353   -3.7726  -20.0530 H      402  SV6402      0.0000
     92 H          -4.4417   -2.0468  -21.1045 H      402  SV6402      0.0000
     93 H          -5.6420   -1.7578  -19.8179 H      402  SV6402      0.0000
     94 H          -6.1574    0.4149  -20.5533 H      402  SV6402      0.0000
     95 H          -5.7750    0.0353  -22.2554 H      402  SV6402      0.0000
     96 H          -4.0557    1.5919  -21.2868 H      402  SV6402      0.0000
     97 H          -3.3106    0.0387  -21.7759 H      402  SV6402      0.0000
     98 H          -3.6373    0.3733  -20.0418 H      402  SV6402      0.0000
     99 H          -3.5928   -6.8802  -21.7601 H      402  SV6402      0.0000
    100 H          -4.0208   -6.0068  -24.7058 H      402  SV6402      0.0000
    101 H          -2.9218   -7.3864  -24.0629 H      402  SV6402      0.0000
    102 H          -1.6431   -5.7504  -22.7456 H      402  SV6402      0.0000
    103 H          -2.7495   -4.3722  -23.3858 H      402  SV6402      0.0000
    104 H          -8.4509   -4.1212  -21.8139 H      402  SV6402      0.0000
@<TRIPOS>BOND
     1     1     4    1
     2     1     5   ar
     3     1     7   ar
     4     2     3   ar
     5     2     7   ar
     6     2    50    1
     7     3     8   ar
     8     3    51    1
     9     4     6    2
    10     4     9    1
    11     5     8   ar
    12     5    52    1
    13     9    10    1
    14     9    53    1
    15    10    11    1
    16    10    13    1
    17    10    54    1
    18    11    12    2
    19    11    19    1
    20    13    14    1
    21    13    18    1
    22    13    55    1
    23    14    15    1
    24    14    56    1
    25    14    57    1
    26    15    16    1
    27    15    58    1
    28    15    59    1
    29    16    17    1
    30    16    60    1
    31    16    61    1
    32    17    18    1
    33    17    62    1
    34    17    63    1
    35    18    64    1
    36    18    65    1
    37    19    20    1
    38    19    66    1
    39    20    21    1
    40    20    25    1
    41    20    67    1
    42    21    22    1
    43    21    23    1
    44    21    24    1
    45    22    68    1
    46    22    69    1
    47    22    70    1
    48    23    71    1
    49    23    72    1
    50    23    73    1
    51    24    74    1
    52    24    75    1
    53    24    76    1
    54    25    26    2
    55    25    28    1
    56    27    29    2
    57    27    30    1
    58    27    38    1
    59    28    30    1
    60    28    35    1
    61    30    31    1
    62    30    77    1
    63    31    32    1
    64    31    33    1
    65    31    78    1
    66    32    35    1
    67    32    36    1
    68    32    79    1
    69    33    34    1
    70    33    80    1
    71    33    81    1
    72    34    36    1
    73    34    82    1
    74    34    83    1
    75    35    84    1
    76    35    85    1
    77    36    86    1
    78    36    87    1
    79    37    44    1
    80    37    45    1
    81    37    88    1
    82    38    39    1
    83    38    89    1
    84    39    40    1
    85    39    41    1
    86    39    90    1
    87    40    44    1
    88    40    48    1
    89    40    91    1
    90    41    42    1
    91    41    92    1
    92    41    93    1
    93    42    43    1
    94    42    94    1
    95    42    95    1
    96    43    96    1
    97    43    97    1
    98    43    98    1
    99    44    49    2
   100    45    46    1
   101    45    47    1
   102    45    99    1
   103    46    47    1
   104    46   100    1
   105    46   101    1
   106    47   102    1
   107    47   103    1
   108    48   104    1

