@<TRIPOS>MOLECULE
DMS_1_A_407
 10 9 0 0 0
SMALL
NO_CHARGES

@<TRIPOS>ATOM
      1 S          20.9700  -16.2140    4.7880 S.o    407  DMS407      0.0000
      2 O          19.9100  -16.9340    5.5580 O.2    407  DMS407      0.0000
      3 C1         20.2420  -14.8360    3.8640 C.3    407  DMS407      0.0000
      4 C2         22.0520  -15.3080    5.9310 C.3    407  DMS407      0.0000
      5 H          21.0435  -14.2748    3.3416 H      407  DMS407      0.0000
      6 H          19.7055  -14.1586    4.5596 H      407  DMS407      0.0000
      7 H          19.5275  -15.2348    3.1152 H      407  DMS407      0.0000
      8 H          22.8039  -14.7331    5.3527 H      407  DMS407      0.0000
      9 H          22.5731  -16.0310    6.5914 H      407  DMS407      0.0000
     10 H          21.4474  -14.6139    6.5500 H      407  DMS407      0.0000
@<TRIPOS>BOND
     1     1     2    2
     2     1     3    1
     3     1     4    1
     4     3     5    1
     5     3     6    1
     6     3     7    1
     7     4     8    1
     8     4     9    1
     9     4    10    1

