@<TRIPOS>MOLECULE
DMS_2_A_404
 10 9 0 0 0
SMALL
NO_CHARGES

@<TRIPOS>ATOM
      1 S          -2.3790  -19.1130   -8.0810 S.o    404  DMS404      0.0000
      2 O          -2.2030  -20.5920   -7.9170 O.2    404  DMS404      0.0000
      3 C1         -1.1680  -18.5020   -9.2880 C.3    404  DMS404      0.0000
      4 C2         -3.9190  -18.8040   -8.9890 C.3    404  DMS404      0.0000
      5 H          -1.3424  -17.4226   -9.4743 H      404  DMS404      0.0000
      6 H          -1.2672  -19.0651  -10.2386 H      404  DMS404      0.0000
      7 H          -0.1452  -18.6424   -8.8825 H      404  DMS404      0.0000
      8 H          -4.0230  -17.7171   -9.1839 H      404  DMS404      0.0000
      9 H          -4.7786  -19.1497   -8.3792 H      404  DMS404      0.0000
     10 H          -3.9057  -19.3555   -9.9514 H      404  DMS404      0.0000
@<TRIPOS>BOND
     1     1     2    2
     2     1     3    1
     3     1     4    1
     4     3     5    1
     5     3     6    1
     6     3     7    1
     7     4     8    1
     8     4     9    1
     9     4    10    1

