@<TRIPOS>MOLECULE
DMS_2_A_403
 10 9 0 0 0
SMALL
NO_CHARGES

@<TRIPOS>ATOM
      1 S          -6.9310  -28.1860  -21.5000 S.o    403  DMS403      0.0000
      2 O          -7.7490  -27.1940  -22.2350 O.2    403  DMS403      0.0000
      3 C1         -5.5820  -28.7590  -22.5730 C.3    403  DMS403      0.0000
      4 C2         -5.9880  -27.3780  -20.1960 C.3    403  DMS403      0.0000
      5 H          -4.9346  -29.4628  -22.0110 H      403  DMS403      0.0000
      6 H          -4.9807  -27.8925  -22.9170 H      403  DMS403      0.0000
      7 H          -6.0117  -29.2809  -23.4524 H      403  DMS403      0.0000
      8 H          -5.3326  -28.1202  -19.6961 H      403  DMS403      0.0000
      9 H          -6.6880  -26.9496  -19.4499 H      403  DMS403      0.0000
     10 H          -5.3683  -26.5647  -20.6264 H      403  DMS403      0.0000
@<TRIPOS>BOND
     1     1     2    2
     2     1     3    1
     3     1     4    1
     4     3     5    1
     5     3     6    1
     6     3     7    1
     7     4     8    1
     8     4     9    1
     9     4    10    1

