DMS_1_A_405
  -ISIS-            3D

 10  9  0  0  0  0  0  0  0  0  1 V2000
    6.0960    0.3920   18.2180 S   0  0  0  0  0
    7.3060    0.9000   17.5190 O   0  0  0  0  0
    6.5850   -0.3620   19.7960 C   0  0  0  0  0
    5.1110    1.7790   18.8520 C   0  0  0  0  0
    5.6799   -0.6859   20.3492 H   0  0  0  0  0
    7.1522    0.3716   20.4049 H   0  0  0  0  0
    7.2251   -1.2453   19.5950 H   0  0  0  0  0
    4.2496    1.3887   19.4315 H   0  0  0  0  0
    4.7346    2.3788   17.9982 H   0  0  0  0  0
    5.7391    2.4211   19.5030 H   0  0  0  0  0
  1  2  2  0  0  0
  1  3  1  0  0  0
  1  4  1  0  0  0
  3  5  1  0  0  0
  3  6  1  0  0  0
  3  7  1  0  0  0
  4  8  1  0  0  0
  4  9  1  0  0  0
  4 10  1  0  0  0
M  END
$$$$
