@<TRIPOS>MOLECULE
DMS_2_A_403
 10 9 0 0 0
SMALL
NO_CHARGES

@<TRIPOS>ATOM
      1 S         -20.3880  -16.4700   -4.9070 S.o    403  DMS403      0.0000
      2 O         -20.6480  -17.9510   -5.0350 O.2    403  DMS403      0.0000
      3 C1        -21.6670  -15.5300   -5.8140 C.3    403  DMS403      0.0000
      4 C2        -20.7180  -15.9310   -3.2000 C.3    403  DMS403      0.0000
      5 H         -21.4988  -14.4433   -5.6695 H      403  DMS403      0.0000
      6 H         -22.6727  -15.8064   -5.4363 H      403  DMS403      0.0000
      7 H         -21.5988  -15.7718   -6.8944 H      403  DMS403      0.0000
      8 H         -20.5758  -14.8336   -3.1245 H      403  DMS403      0.0000
      9 H         -20.0110  -16.4403   -2.5136 H      403  DMS403      0.0000
     10 H         -21.7585  -16.1930   -2.9187 H      403  DMS403      0.0000
@<TRIPOS>BOND
     1     1     2    2
     2     1     3    1
     3     1     4    1
     4     3     5    1
     5     3     6    1
     6     3     7    1
     7     4     8    1
     8     4     9    1
     9     4    10    1

