DMS_1_A_403
  -ISIS-            3D

 10  9  0  0  0  0  0  0  0  0  1 V2000
   20.3880  -16.4700    4.9070 S   0  0  0  0  0
   20.6480  -17.9510    5.0350 O   0  0  0  0  0
   21.6670  -15.5300    5.8140 C   0  0  0  0  0
   20.7180  -15.9310    3.2000 C   0  0  0  0  0
   21.4988  -14.4433    5.6695 H   0  0  0  0  0
   22.6727  -15.8064    5.4363 H   0  0  0  0  0
   21.5988  -15.7718    6.8944 H   0  0  0  0  0
   20.5758  -14.8336    3.1245 H   0  0  0  0  0
   20.0110  -16.4403    2.5136 H   0  0  0  0  0
   21.7585  -16.1930    2.9187 H   0  0  0  0  0
  1  2  2  0  0  0
  1  3  1  0  0  0
  1  4  1  0  0  0
  3  5  1  0  0  0
  3  6  1  0  0  0
  3  7  1  0  0  0
  4  8  1  0  0  0
  4  9  1  0  0  0
  4 10  1  0  0  0
M  END
$$$$
