@<TRIPOS>MOLECULE
DMS_1_A_404
 10 9 0 0 0
SMALL
NO_CHARGES

@<TRIPOS>ATOM
      1 S           6.2210   -0.8810   -6.3260 S.o    404  DMS404      0.0000
      2 O           7.2370   -0.3860   -7.3120 O.2    404  DMS404      0.0000
      3 C1          5.8170   -2.6220   -6.6320 C.3    404  DMS404      0.0000
      4 C2          6.9640   -0.9920   -4.6480 C.3    404  DMS404      0.0000
      5 H           5.0969   -2.9755   -5.8661 H      404  DMS404      0.0000
      6 H           6.7405   -3.2349   -6.5867 H      404  DMS404      0.0000
      7 H           5.3592   -2.7194   -7.6376 H      404  DMS404      0.0000
      8 H           6.2121   -1.3926   -3.9377 H      404  DMS404      0.0000
      9 H           7.2763    0.0209   -4.3213 H      404  DMS404      0.0000
     10 H           7.8481   -1.6614   -4.6753 H      404  DMS404      0.0000
@<TRIPOS>BOND
     1     1     2    2
     2     1     3    1
     3     1     4    1
     4     3     5    1
     5     3     6    1
     6     3     7    1
     7     4     8    1
     8     4     9    1
     9     4    10    1

