@<TRIPOS>MOLECULE
DMS_2_A_402
 10 9 0 0 0
SMALL
NO_CHARGES

@<TRIPOS>ATOM
      1 S          -7.4480  -28.5910  -21.2190 S.o    402  DMS402      0.0000
      2 O          -8.3890  -27.8460  -22.0580 O.2    402  DMS402      0.0000
      3 C1         -6.3300  -27.4740  -20.6990 C.3    402  DMS402      0.0000
      4 C2         -6.4460  -29.3170  -22.3930 C.3    402  DMS402      0.0000
      5 H          -5.4585  -27.9802  -20.2354 H      402  DMS402      0.0000
      6 H          -6.7903  -26.8195  -19.9306 H      402  DMS402      0.0000
      7 H          -5.9739  -26.8306  -21.5298 H      402  DMS402      0.0000
      8 H          -5.5671  -29.7925  -21.9111 H      402  DMS402      0.0000
      9 H          -6.0933  -28.5786  -23.1425 H      402  DMS402      0.0000
     10 H          -7.0137  -30.1083  -22.9246 H      402  DMS402      0.0000
@<TRIPOS>BOND
     1     1     2    2
     2     1     3    1
     3     1     4    1
     4     3     5    1
     5     3     6    1
     6     3     7    1
     7     4     8    1
     8     4     9    1
     9     4    10    1

