DMS_1_A_403
  -ISIS-            3D

 10  9  0  0  0  0  0  0  0  0  1 V2000
    6.3230   -1.1710   -6.7580 S   0  0  0  0  0
    7.2090   -1.5890   -7.8600 O   0  0  0  0  0
    7.4200   -0.7910   -5.5690 C   0  0  0  0  0
    5.7310   -2.5880   -6.1670 C   0  0  0  0  0
    6.8990   -0.6129   -4.6059 H   0  0  0  0  0
    7.9611    0.1387   -5.8408 H   0  0  0  0  0
    8.1664   -1.5996   -5.4262 H   0  0  0  0  0
    5.1955   -2.4155   -5.2109 H   0  0  0  0  0
    6.5378   -3.3299   -5.9945 H   0  0  0  0  0
    5.0086   -3.0228   -6.8880 H   0  0  0  0  0
  1  2  2  0  0  0
  1  3  1  0  0  0
  1  4  1  0  0  0
  3  5  1  0  0  0
  3  6  1  0  0  0
  3  7  1  0  0  0
  4  8  1  0  0  0
  4  9  1  0  0  0
  4 10  1  0  0  0
M  END
$$$$
