@<TRIPOS>MOLECULE
DMS_1_A_403
 10 9 0 0 0
SMALL
NO_CHARGES

@<TRIPOS>ATOM
      1 S           6.3230   -1.1710   -6.7580 S.o    403  DMS403      0.0000
      2 O           7.2090   -1.5890   -7.8600 O.2    403  DMS403      0.0000
      3 C1          7.4200   -0.7910   -5.5690 C.3    403  DMS403      0.0000
      4 C2          5.7310   -2.5880   -6.1670 C.3    403  DMS403      0.0000
      5 H           6.8990   -0.6129   -4.6059 H      403  DMS403      0.0000
      6 H           7.9611    0.1387   -5.8408 H      403  DMS403      0.0000
      7 H           8.1664   -1.5996   -5.4262 H      403  DMS403      0.0000
      8 H           5.1955   -2.4155   -5.2109 H      403  DMS403      0.0000
      9 H           6.5378   -3.3299   -5.9945 H      403  DMS403      0.0000
     10 H           5.0086   -3.0228   -6.8880 H      403  DMS403      0.0000
@<TRIPOS>BOND
     1     1     2    2
     2     1     3    1
     3     1     4    1
     4     3     5    1
     5     3     6    1
     6     3     7    1
     7     4     8    1
     8     4     9    1
     9     4    10    1

