@<TRIPOS>MOLECULE
DMS_1_A_402
 10 9 0 0 0
SMALL
NO_CHARGES

@<TRIPOS>ATOM
      1 S           6.0600   -1.3090   -6.1650 S.o    402  DMS402      0.0000
      2 O           6.5980   -0.7750   -7.4560 O.2    402  DMS402      0.0000
      3 C1          7.3360   -1.0110   -4.9570 C.3    402  DMS402      0.0000
      4 C2          6.1770   -3.0780   -6.2100 C.3    402  DMS402      0.0000
      5 H           7.0605   -1.4875   -3.9938 H      402  DMS402      0.0000
      6 H           7.4423    0.0815   -4.7985 H      402  DMS402      0.0000
      7 H           8.3044   -1.4212   -5.3092 H      402  DMS402      0.0000
      8 H           5.9211   -3.4980   -5.2156 H      402  DMS402      0.0000
      9 H           7.2035   -3.3902   -6.4906 H      402  DMS402      0.0000
     10 H           5.4620   -3.4733   -6.9604 H      402  DMS402      0.0000
@<TRIPOS>BOND
     1     1     2    2
     2     1     3    1
     3     1     4    1
     4     3     5    1
     5     3     6    1
     6     3     7    1
     7     4     8    1
     8     4     9    1
     9     4    10    1

