DMS_1_A_401
  -ISIS-            3D

 10  9  0  0  0  0  0  0  0  0  1 V2000
    6.6870  -27.9440   21.4540 S   0  0  0  0  0
    7.6670  -27.2120   22.2740 O   0  0  0  0  0
    5.4000  -28.4810   22.5660 C   0  0  0  0  0
    5.7260  -26.7240   20.6350 C   0  0  0  0  0
    4.5556  -28.9091   21.9881 H   0  0  0  0  0
    5.0365  -27.6310   23.1796 H   0  0  0  0  0
    5.8036  -29.2639   23.2403 H   0  0  0  0  0
    4.8706  -27.2007   20.1143 H   0  0  0  0  0
    6.3544  -26.2061   19.8817 H   0  0  0  0  0
    5.3455  -25.9740   21.3588 H   0  0  0  0  0
  1  2  2  0  0  0
  1  3  1  0  0  0
  1  4  1  0  0  0
  3  5  1  0  0  0
  3  6  1  0  0  0
  3  7  1  0  0  0
  4  8  1  0  0  0
  4  9  1  0  0  0
  4 10  1  0  0  0
M  END
$$$$
