DMS_2_A_401
  -ISIS-            3D

 10  9  0  0  0  0  0  0  0  0  1 V2000
   -6.9080  -28.1490  -21.3570 S   0  0  0  0  0
   -7.7940  -27.2390  -22.1170 O   0  0  0  0  0
   -5.7000  -28.7270  -22.5220 C   0  0  0  0  0
   -5.8500  -27.0780  -20.4340 C   0  0  0  0  0
   -4.9009  -29.2836  -21.9909 H   0  0  0  0  0
   -5.2525  -27.8741  -23.0726 H   0  0  0  0  0
   -6.1881  -29.4088  -23.2482 H   0  0  0  0  0
   -5.0441  -27.6681  -19.9517 H   0  0  0  0  0
   -6.4403  -26.5693  -19.6443 H   0  0  0  0  0
   -5.3986  -26.3109  -21.0963 H   0  0  0  0  0
  1  2  2  0  0  0
  1  3  1  0  0  0
  1  4  1  0  0  0
  3  5  1  0  0  0
  3  6  1  0  0  0
  3  7  1  0  0  0
  4  8  1  0  0  0
  4  9  1  0  0  0
  4 10  1  0  0  0
M  END
$$$$
