DMS_2_A_403
  -ISIS-            3D

 10  9  0  0  0  0  0  0  0  0  1 V2000
   -2.3190  -18.9820   -8.0290 S   0  0  0  0  0
   -3.5970  -18.4760   -8.6800 O   0  0  0  0  0
   -0.9700  -18.1250   -8.8150 C   0  0  0  0  0
   -2.0390  -20.5910   -8.7490 C   0  0  0  0  0
   -0.0050  -18.5661   -8.4911 H   0  0  0  0  0
   -0.9935  -17.0563   -8.5188 H   0  0  0  0  0
   -1.0582  -18.1965   -9.9182 H   0  0  0  0  0
   -1.0474  -20.9758   -8.4337 H   0  0  0  0  0
   -2.0778  -20.5305   -9.8558 H   0  0  0  0  0
   -2.8239  -21.2910   -8.3969 H   0  0  0  0  0
  1  2  2  0  0  0
  1  3  1  0  0  0
  1  4  1  0  0  0
  3  5  1  0  0  0
  3  6  1  0  0  0
  3  7  1  0  0  0
  4  8  1  0  0  0
  4  9  1  0  0  0
  4 10  1  0  0  0
M  END
$$$$
