NOL_1_A_2001
  -ISIS-            3D

 91 93  0  0  0  0  0  0  0  0  1 V2000
   21.5000    5.9480   19.3940 C   0  0  0  0  0
   20.1950    6.0620   18.8140 C   0  0  0  0  0
   19.4130    7.4100   18.9140 C   0  0  0  0  0
   19.9920    8.5100   19.5720 C   0  0  0  0  0
   21.4070    8.3870   20.2000 C   0  0  0  0  0
   22.1270    7.1530   20.1120 C   0  0  0  0  0
   19.5950    4.8460   18.1060 C   0  0  0  0  0
   18.6020    4.2710   18.9710 O   0  0  0  0  0
   18.6480    3.4850   20.1600 C   0  0  0  0  0
   17.7190    2.9440   20.9940 N   0  0  0  0  0
   17.9740    2.1500   22.2180 C   0  0  0  0  0
   17.0500    1.0590   22.0180 C   0  0  0  0  0
   17.9030    0.0510   22.0440 N   0  0  0  0  0
   17.3880   -1.3640   21.8880 C   0  0  0  0  0
   16.7260   -1.9610   23.0800 C   0  0  0  0  0
   15.7000   -2.9900   23.0080 N   0  0  0  0  0
   14.5570   -2.9170   23.7350 C   0  0  0  0  0
   13.6450   -3.9600   23.6130 C   0  0  0  0  0
   14.0880   -4.6710   24.8120 O   0  0  0  0  0
   13.7160   -1.5790   24.1280 C   0  0  0  0  0
   13.7870   -0.1360   24.4680 C   0  0  0  0  0
   14.4450    0.0020   25.8380 C   0  0  0  0  0
   13.7200    1.1990   26.5080 C   0  0  0  0  0
   12.4310    1.2500   25.8120 N   0  0  0  0  0
   12.4770    0.4970   24.6690 C   0  0  0  0  0
   11.5010    0.3910   23.8990 O   0  0  0  0  0
   17.0470   -1.5350   24.2050 O   0  0  0  0  0
   18.4250   -2.4560   21.5220 C   0  0  0  0  0
   19.3910   -2.3210   20.3580 C   0  0  0  0  0
   18.6130   -2.0700   18.9940 C   0  0  0  0  0
   19.6270   -1.9260   17.7990 C   0  0  0  0  0
   20.5830   -3.2090   17.6930 C   0  0  0  0  0
   21.3300   -3.5330   19.0550 C   0  0  0  0  0
   20.3010   -3.6350   20.2690 C   0  0  0  0  0
   15.8750    0.8940   21.8770 O   0  0  0  0  0
   17.5870    3.0990   23.3120 C   0  0  0  0  0
   17.8130    2.4140   24.7190 C   0  0  0  0  0
   18.3270    4.2910   23.6940 O   0  0  0  0  0
   17.7710    5.6850   23.8350 C   0  0  0  0  0
   16.6360    5.8590   24.9200 C   0  0  0  0  0
   17.2100    6.1800   22.4720 C   0  0  0  0  0
   18.9250    6.5980   24.2430 C   0  0  0  0  0
   19.8850    3.3070   20.4190 O   0  0  0  0  0
   22.0673    5.0043   19.3393 H   0  0  0  0  0
   18.4078    7.4865   18.4674 H   0  0  0  0  0
   19.4506    9.4675   19.6504 H   0  0  0  0  0
   21.8478    9.2577   20.7134 H   0  0  0  0  0
   23.1311    7.0564   20.5572 H   0  0  0  0  0
   20.3758    4.1023   17.8484 H   0  0  0  0  0
   19.1257    5.1679   17.1541 H   0  0  0  0  0
   16.7349    3.0997   20.7325 H   0  0  0  0  0
   19.0599    1.9336   22.3196 H   0  0  0  0  0
   18.9202    0.1361   22.1742 H   0  0  0  0  0
   16.6244   -1.3682   21.0683 H   0  0  0  0  0
   13.7902   -4.5852   22.7039 H   0  0  0  0  0
   12.5648   -3.7175   23.7024 H   0  0  0  0  0
   14.7766   -5.2796   24.5770 H   0  0  0  0  0
   14.3633    0.4312   23.7043 H   0  0  0  0  0
   15.5419    0.1701   25.7682 H   0  0  0  0  0
   14.2868   -0.9078   26.4623 H   0  0  0  0  0
   14.2969    2.1395   26.3543 H   0  0  0  0  0
   13.6056    1.0373   27.6032 H   0  0  0  0  0
   11.5967    1.7697   26.1110 H   0  0  0  0  0
   17.8677   -3.4119   21.3725 H   0  0  0  0  0
   19.0509   -2.6226   22.4321 H   0  0  0  0  0
   20.0576   -1.4451   20.5459 H   0  0  0  0  0
   18.0011   -1.1423   19.0682 H   0  0  0  0  0
   17.9153   -2.9150   18.7946 H   0  0  0  0  0
   20.2503   -1.0142   17.9456 H   0  0  0  0  0
   19.0701   -1.7946   16.8430 H   0  0  0  0  0
   21.3332   -3.0467   16.8854 H   0  0  0  0  0
   19.9708   -4.0913   17.3954 H   0  0  0  0  0
   22.0706   -2.7284   19.2685 H   0  0  0  0  0
   21.8971   -4.4870   18.9589 H   0  0  0  0  0
   19.6564   -4.5325   20.1273 H   0  0  0  0  0
   20.8650   -3.7758   21.2194 H   0  0  0  0  0
   16.5060    3.3496   23.2233 H   0  0  0  0  0
   17.4259    3.0298   25.5603 H   0  0  0  0  0
   18.8887    2.2084   24.9157 H   0  0  0  0  0
   17.2834    1.4391   24.7755 H   0  0  0  0  0
   16.2910    6.9130   24.9955 H   0  0  0  0  0
   16.9905    5.5512   25.9275 H   0  0  0  0  0
   15.7473    5.2364   24.6798 H   0  0  0  0  0
   16.8705    7.2373   22.5212 H   0  0  0  0  0
   16.3406    5.5727   22.1402 H   0  0  0  0  0
   17.9778    6.1186   21.6703 H   0  0  0  0  0
   18.6094    7.6597   24.3389 H   0  0  0  0  0
   19.7512    6.5688   23.4991 H   0  0  0  0  0
   19.3595    6.2944   25.2204 H   0  0  0  0  0
   13.0633   -1.5029   23.2261 H   0  0  0  0  0
   13.0329   -1.9551   24.9234 H   0  0  0  0  0
  1  2  1  0  0  0
  1  6  1  0  0  0
  1 44  1  0  0  0
  2  3  1  0  0  0
  2  7  1  0  0  0
  3  4  2  0  0  0
  3 45  1  0  0  0
  4  5  1  0  0  0
  4 46  1  0  0  0
  5  6  1  0  0  0
  5 47  1  0  0  0
  6 48  1  0  0  0
  7  8  1  0  0  0
  7 49  1  0  0  0
  7 50  1  0  0  0
  8  9  1  0  0  0
  9 10  1  0  0  0
  9 43  2  0  0  0
 10 11  1  0  0  0
 10 51  1  0  0  0
 11 12  1  0  0  0
 11 36  1  0  0  0
 11 52  1  0  0  0
 12 13  1  0  0  0
 12 35  2  0  0  0
 13 14  1  0  0  0
 13 53  1  0  0  0
 14 15  1  0  0  0
 14 28  1  0  0  0
 14 54  1  0  0  0
 15 16  1  0  0  0
 15 27  2  0  0  0
 16 17  2  0  0  0
 17 18  1  0  0  0
 17 20  1  0  0  0
 18 19  1  0  0  0
 18 55  1  0  0  0
 18 56  1  0  0  0
 19 57  1  0  0  0
 20 21  1  0  0  0
 20 90  1  0  0  0
 20 91  1  0  0  0
 21 22  1  0  0  0
 21 25  1  0  0  0
 21 58  1  0  0  0
 22 23  1  0  0  0
 22 59  1  0  0  0
 22 60  1  0  0  0
 23 24  1  0  0  0
 23 61  1  0  0  0
 23 62  1  0  0  0
 24 25  1  0  0  0
 24 63  1  0  0  0
 25 26  2  0  0  0
 28 29  1  0  0  0
 28 64  1  0  0  0
 28 65  1  0  0  0
 29 30  1  0  0  0
 29 34  1  0  0  0
 29 66  1  0  0  0
 30 31  1  0  0  0
 30 67  1  0  0  0
 30 68  1  0  0  0
 31 32  1  0  0  0
 31 69  1  0  0  0
 31 70  1  0  0  0
 32 33  1  0  0  0
 32 71  1  0  0  0
 32 72  1  0  0  0
 33 34  1  0  0  0
 33 73  1  0  0  0
 33 74  1  0  0  0
 34 75  1  0  0  0
 34 76  1  0  0  0
 36 37  1  0  0  0
 36 38  1  0  0  0
 36 77  1  0  0  0
 37 78  1  0  0  0
 37 79  1  0  0  0
 37 80  1  0  0  0
 38 39  1  0  0  0
 39 40  1  0  0  0
 39 41  1  0  0  0
 39 42  1  0  0  0
 40 81  1  0  0  0
 40 82  1  0  0  0
 40 83  1  0  0  0
 41 84  1  0  0  0
 41 85  1  0  0  0
 41 86  1  0  0  0
 42 87  1  0  0  0
 42 88  1  0  0  0
 42 89  1  0  0  0
M  END
$$$$
