@<TRIPOS>MOLECULE
DMS_1_A_402
 10 9 0 0 0
SMALL
NO_CHARGES

@<TRIPOS>ATOM
      1 S           6.0890   -1.0650   -6.2980 S.o    402  DMS402      0.0000
      2 O           7.0710   -0.8330   -7.3760 O.2    402  DMS402      0.0000
      3 C1          6.9900   -0.9520   -4.7590 C.3    402  DMS402      0.0000
      4 C2          5.7630   -2.7900   -6.2640 C.3    402  DMS402      0.0000
      5 H           6.3316   -1.2449   -3.9159 H      402  DMS402      0.0000
      6 H           7.3241    0.0947   -4.6065 H      402  DMS402      0.0000
      7 H           7.8787   -1.6158   -4.7831 H      402  DMS402      0.0000
      8 H           5.1339   -3.0385   -5.3849 H      402  DMS402      0.0000
      9 H           6.7113   -3.3636   -6.2118 H      402  DMS402      0.0000
     10 H           5.2178   -3.0802   -7.1854 H      402  DMS402      0.0000
@<TRIPOS>BOND
     1     1     2    2
     2     1     3    1
     3     1     4    1
     4     3     5    1
     5     3     6    1
     6     3     7    1
     7     4     8    1
     8     4     9    1
     9     4    10    1

