DMS_2_A_402
  -ISIS-            3D

 10  9  0  0  0  0  0  0  0  0  1 V2000
   -6.0890   -1.0650    6.2980 S   0  0  0  0  0
   -7.0710   -0.8330    7.3760 O   0  0  0  0  0
   -6.9900   -0.9520    4.7590 C   0  0  0  0  0
   -5.7630   -2.7900    6.2640 C   0  0  0  0  0
   -6.3316   -1.2449    3.9159 H   0  0  0  0  0
   -7.3241    0.0947    4.6065 H   0  0  0  0  0
   -7.8787   -1.6158    4.7831 H   0  0  0  0  0
   -5.1339   -3.0385    5.3849 H   0  0  0  0  0
   -6.7113   -3.3636    6.2118 H   0  0  0  0  0
   -5.2178   -3.0802    7.1854 H   0  0  0  0  0
  1  2  2  0  0  0
  1  3  1  0  0  0
  1  4  1  0  0  0
  3  5  1  0  0  0
  3  6  1  0  0  0
  3  7  1  0  0  0
  4  8  1  0  0  0
  4  9  1  0  0  0
  4 10  1  0  0  0
M  END
$$$$
