@<TRIPOS>MOLECULE
1PE_1_A_1305
 38 37 0 0 0
SMALL
NO_CHARGES

@<TRIPOS>ATOM
      1 OH2        23.9100  -30.5130   -9.8330 O.3   1305  1PE1305      0.0000
      2 C12        24.2640  -29.6250   -8.8070 C.3   1305  1PE1305      0.0000
      3 C22        25.3110  -30.2990   -7.9210 C.3   1305  1PE1305      0.0000
      4 OH3        24.8210  -30.4820   -6.6190 O.3   1305  1PE1305      0.0000
      5 C13        24.1540  -32.7400   -6.1810 C.3   1305  1PE1305      0.0000
      6 C23        25.2480  -31.6820   -6.0370 C.3   1305  1PE1305      0.0000
      7 OH4        24.7110  -33.9080   -6.7170 O.3   1305  1PE1305      0.0000
      8 C14        24.5570  -35.3000   -8.6570 C.3   1305  1PE1305      0.0000
      9 C24        24.8550  -33.9020   -8.1140 C.3   1305  1PE1305      0.0000
     10 OH5        25.7060  -36.0980   -8.5530 O.3   1305  1PE1305      0.0000
     11 C15        25.8620  -36.8060   -6.2310 C.3   1305  1PE1305      0.0000
     12 C25        25.5830  -37.2000   -7.6870 C.3   1305  1PE1305      0.0000
     13 OH6        25.3680  -37.7990   -5.3710 O.3   1305  1PE1305      0.0000
     14 C16        24.3950  -36.7170   -3.4550 C.3   1305  1PE1305      0.0000
     15 C26        25.5540  -37.5520   -4.0030 C.3   1305  1PE1305      0.0000
     16 OH7        23.9990  -37.2260   -2.2130 O.3   1305  1PE1305      0.0000
     17 H          23.2413  -30.1052  -10.3671 H     1305  1PE1305      0.0000
     18 H          23.3638  -29.3463   -8.2200 H     1305  1PE1305      0.0000
     19 H          24.6744  -28.6924   -9.2489 H     1305  1PE1305      0.0000
     20 H          26.2258  -29.6721   -7.8683 H     1305  1PE1305      0.0000
     21 H          25.6222  -31.2569   -8.3810 H     1305  1PE1305      0.0000
     22 H          23.2921  -32.3893   -6.7839 H     1305  1PE1305      0.0000
     23 H          23.7438  -32.9824   -5.1784 H     1305  1PE1305      0.0000
     24 H          25.4193  -31.4922   -4.9564 H     1305  1PE1305      0.0000
     25 H          26.2300  -32.0091   -6.4339 H     1305  1PE1305      0.0000
     26 H          24.2938  -35.2247   -9.7331 H     1305  1PE1305      0.0000
     27 H          23.6768  -35.7454   -8.1505 H     1305  1PE1305      0.0000
     28 H          25.8771  -33.5751   -8.3937 H     1305  1PE1305      0.0000
     29 H          24.1398  -33.1923   -8.5792 H     1305  1PE1305      0.0000
     30 H          25.3699  -35.8517   -5.9788 H     1305  1PE1305      0.0000
     31 H          26.9530  -36.6683   -6.0798 H     1305  1PE1305      0.0000
     32 H          26.3189  -37.9711   -7.9970 H     1305  1PE1305      0.0000
     33 H          24.5850  -37.6724   -7.7955 H     1305  1PE1305      0.0000
     34 H          23.5225  -36.7701   -4.1391 H     1305  1PE1305      0.0000
     35 H          24.6727  -35.6455   -3.3698 H     1305  1PE1305      0.0000
     36 H          26.5360  -37.0773   -3.8022 H     1305  1PE1305      0.0000
     37 H          25.5753  -38.5371   -3.4913 H     1305  1PE1305      0.0000
     38 H          24.6232  -36.9493   -1.5547 H     1305  1PE1305      0.0000
@<TRIPOS>BOND
     1     1     2    1
     2     1    17    1
     3     2     3    1
     4     2    18    1
     5     2    19    1
     6     3     4    1
     7     3    20    1
     8     3    21    1
     9     4     6    1
    10     5     6    1
    11     5     7    1
    12     5    22    1
    13     5    23    1
    14     6    24    1
    15     6    25    1
    16     7     9    1
    17     8     9    1
    18     8    10    1
    19     8    26    1
    20     8    27    1
    21     9    28    1
    22     9    29    1
    23    10    12    1
    24    11    12    1
    25    11    13    1
    26    11    30    1
    27    11    31    1
    28    12    32    1
    29    12    33    1
    30    13    15    1
    31    14    15    1
    32    14    16    1
    33    14    34    1
    34    14    35    1
    35    15    36    1
    36    15    37    1
    37    16    38    1

