BU2_1_A_1311
  -ISIS-            3D

 16 15  0  0  0  0  0  0  0  0  1 V2000
   20.0730  -38.7560   23.9410 C   0  0  0  0  0
   18.7990  -38.4080   24.4180 O   0  0  0  0  0
   21.1420  -38.4880   25.0050 C   0  0  0  0  0
   21.5280  -39.8100   25.6740 C   0  0  0  0  0
   22.7460  -39.6880   26.3650 O   0  0  0  0  0
   20.4120  -40.2330   26.6300 C   0  0  0  0  0
   20.2919  -38.1351   23.0441 H   0  0  0  0  0
   20.0766  -39.8115   23.5967 H   0  0  0  0  0
   18.1638  -38.5682   23.7323 H   0  0  0  0  0
   20.8056  -37.7283   25.7426 H   0  0  0  0  0
   22.0425  -38.0661   24.5044 H   0  0  0  0  0
   21.6609  -40.5991   24.9002 H   0  0  0  0  0
   22.6514  -39.0236   27.0342 H   0  0  0  0  0
   20.6758  -41.1725   27.1637 H   0  0  0  0  0
   19.4554  -40.4282   26.0996 H   0  0  0  0  0
   20.2091  -39.4639   27.4070 H   0  0  0  0  0
  1  2  1  0  0  0
  1  3  1  0  0  0
  1  7  1  0  0  0
  1  8  1  0  0  0
  2  9  1  0  0  0
  3  4  1  0  0  0
  3 10  1  0  0  0
  3 11  1  0  0  0
  4  5  1  0  0  0
  4  6  1  0  0  0
  4 12  1  0  0  0
  5 13  1  0  0  0
  6 14  1  0  0  0
  6 15  1  0  0  0
  6 16  1  0  0  0
M  END
$$$$
