BU2_1_B_2110
  -ISIS-            3D

 16 15  0  0  0  0  0  0  0  0  1 V2000
   17.5580  -13.2550   12.4140 C   0  0  0  0  0
   17.6220  -14.6470   12.2150 O   0  0  0  0  0
   18.3860  -12.8370   13.6340 C   0  0  0  0  0
   17.6140  -11.8190   14.4820 C   0  0  0  0  0
   17.9720  -11.9370   15.8390 O   0  0  0  0  0
   17.9040  -10.4050   13.9710 C   0  0  0  0  0
   16.4887  -12.9858   12.5374 H   0  0  0  0  0
   17.9077  -12.7231   11.5027 H   0  0  0  0  0
   18.4880  -14.8668   11.8972 H   0  0  0  0  0
   19.3829  -12.4516   13.3306 H   0  0  0  0  0
   18.5814  -13.7406   14.2539 H   0  0  0  0  0
   16.5181  -12.0010   14.3981 H   0  0  0  0  0
   17.5683  -12.7179   16.1942 H   0  0  0  0  0
   17.3335   -9.6430   14.5462 H   0  0  0  0  0
   17.6207  -10.2854   12.9024 H   0  0  0  0  0
   18.9810  -10.1438   14.0621 H   0  0  0  0  0
  1  2  1  0  0  0
  1  3  1  0  0  0
  1  7  1  0  0  0
  1  8  1  0  0  0
  2  9  1  0  0  0
  3  4  1  0  0  0
  3 10  1  0  0  0
  3 11  1  0  0  0
  4  5  1  0  0  0
  4  6  1  0  0  0
  4 12  1  0  0  0
  5 13  1  0  0  0
  6 14  1  0  0  0
  6 15  1  0  0  0
  6 16  1  0  0  0
M  END
$$$$
