@<TRIPOS>MOLECULE
BU2_1_B_2111
 16 15 0 0 0
SMALL
NO_CHARGES

@<TRIPOS>ATOM
      1 C1         34.0400  -23.6960   38.1290 C.3   2111  BU22111      0.0000
      2 O1         34.2910  -23.8340   39.5040 O.3   2111  BU22111      0.0000
      3 C2         34.1320  -25.0720   37.4710 C.3   2111  BU22111      0.0000
      4 C3         33.9820  -24.9720   35.9520 C.3   2111  BU22111      0.0000
      5 O3         32.8240  -24.2450   35.6500 O.3   2111  BU22111      0.0000
      6 C4         35.2090  -24.2960   35.3340 C.3   2111  BU22111      0.0000
      7 H          34.7960  -22.9998   37.7125 H     2111  BU22111      0.0000
      8 H          33.0427  -23.2312   37.9732 H     2111  BU22111      0.0000
      9 H          33.5210  -24.2051   39.9145 H     2111  BU22111      0.0000
     10 H          33.3313  -25.7299   37.8771 H     2111  BU22111      0.0000
     11 H          35.1003  -25.5566   37.7258 H     2111  BU22111      0.0000
     12 H          33.8959  -26.0037   35.5382 H     2111  BU22111      0.0000
     13 H          32.6496  -24.3216   34.7214 H     2111  BU22111      0.0000
     14 H          35.1660  -24.3255   34.2229 H     2111  BU22111      0.0000
     15 H          36.1531  -24.8034   35.6299 H     2111  BU22111      0.0000
     16 H          35.3013  -23.2266   35.6187 H     2111  BU22111      0.0000
@<TRIPOS>BOND
     1     1     2    1
     2     1     3    1
     3     1     7    1
     4     1     8    1
     5     2     9    1
     6     3     4    1
     7     3    10    1
     8     3    11    1
     9     4     5    1
    10     4     6    1
    11     4    12    1
    12     5    13    1
    13     6    14    1
    14     6    15    1
    15     6    16    1

