@<TRIPOS>MOLECULE
BU2_1_A_1311
 16 15 0 0 0
SMALL
NO_CHARGES

@<TRIPOS>ATOM
      1 C1         20.0730  -38.7560   23.9410 C.3   1311  BU21311      0.0000
      2 O1         18.7990  -38.4080   24.4180 O.3   1311  BU21311      0.0000
      3 C2         21.1420  -38.4880   25.0050 C.3   1311  BU21311      0.0000
      4 C3         21.5280  -39.8100   25.6740 C.3   1311  BU21311      0.0000
      5 O3         22.7460  -39.6880   26.3650 O.3   1311  BU21311      0.0000
      6 C4         20.4120  -40.2330   26.6300 C.3   1311  BU21311      0.0000
      7 H          20.2919  -38.1351   23.0441 H     1311  BU21311      0.0000
      8 H          20.0766  -39.8115   23.5967 H     1311  BU21311      0.0000
      9 H          18.1638  -38.5682   23.7323 H     1311  BU21311      0.0000
     10 H          20.8056  -37.7283   25.7426 H     1311  BU21311      0.0000
     11 H          22.0425  -38.0661   24.5044 H     1311  BU21311      0.0000
     12 H          21.6609  -40.5991   24.9002 H     1311  BU21311      0.0000
     13 H          22.6514  -39.0236   27.0342 H     1311  BU21311      0.0000
     14 H          20.6758  -41.1725   27.1637 H     1311  BU21311      0.0000
     15 H          19.4554  -40.4282   26.0996 H     1311  BU21311      0.0000
     16 H          20.2091  -39.4639   27.4070 H     1311  BU21311      0.0000
@<TRIPOS>BOND
     1     1     2    1
     2     1     3    1
     3     1     7    1
     4     1     8    1
     5     2     9    1
     6     3     4    1
     7     3    10    1
     8     3    11    1
     9     4     5    1
    10     4     6    1
    11     4    12    1
    12     5    13    1
    13     6    14    1
    14     6    15    1
    15     6    16    1

