@<TRIPOS>MOLECULE
BU2_1_A_1310
 16 15 0 0 0
SMALL
NO_CHARGES

@<TRIPOS>ATOM
      1 C1         48.6890  -18.6500  -13.0260 C.3   1310  BU21310      0.0000
      2 O1         47.6600  -19.2720  -13.7630 O.3   1310  BU21310      0.0000
      3 C2         48.1590  -17.3990  -12.3150 C.3   1310  BU21310      0.0000
      4 C3         49.1920  -16.7700  -11.3730 C.3   1310  BU21310      0.0000
      5 O3         49.3750  -17.5780  -10.2380 O.3   1310  BU21310      0.0000
      6 C4         50.5240  -16.5770  -12.0970 C.3   1310  BU21310      0.0000
      7 H          49.5012  -18.3864  -13.7350 H     1310  BU21310      0.0000
      8 H          49.1112  -19.3741  -12.2958 H     1310  BU21310      0.0000
      9 H          47.0968  -19.7384  -13.1599 H     1310  BU21310      0.0000
     10 H          47.2402  -17.6502  -11.7399 H     1310  BU21310      0.0000
     11 H          47.8523  -16.6516  -13.0806 H     1310  BU21310      0.0000
     12 H          48.8198  -15.7677  -11.0548 H     1310  BU21310      0.0000
     13 H          48.6485  -17.4408   -9.6443 H     1310  BU21310      0.0000
     14 H          51.2298  -15.9835  -11.4750 H     1310  BU21310      0.0000
     15 H          50.4011  -16.0256  -13.0549 H     1310  BU21310      0.0000
     16 H          51.0362  -17.5374  -12.3195 H     1310  BU21310      0.0000
@<TRIPOS>BOND
     1     1     2    1
     2     1     3    1
     3     1     7    1
     4     1     8    1
     5     2     9    1
     6     3     4    1
     7     3    10    1
     8     3    11    1
     9     4     5    1
    10     4     6    1
    11     4    12    1
    12     5    13    1
    13     6    14    1
    14     6    15    1
    15     6    16    1

