@<TRIPOS>MOLECULE
EDO_1_E_606
 10 9 0 0 0
SMALL
NO_CHARGES

@<TRIPOS>ATOM
      1 C1         51.8860   -2.9210   27.8830 C.3    606  EDO606      0.0000
      2 O1         52.5400   -4.1880   27.9690 O.3    606  EDO606      0.0000
      3 C2         51.6780   -2.2610   29.2070 C.3    606  EDO606      0.0000
      4 O2         50.3130   -2.0240   29.5530 O.3    606  EDO606      0.0000
      5 H          50.9081   -3.0596   27.3742 H      606  EDO606      0.0000
      6 H          52.4844   -2.2573   27.2226 H      606  EDO606      0.0000
      7 H          52.5602   -4.5765   27.1044 H      606  EDO606      0.0000
      8 H          52.2308   -1.2976   29.2447 H      606  EDO606      0.0000
      9 H          52.1237   -2.8869   30.0081 H      606  EDO606      0.0000
     10 H          50.0036   -1.2724   29.0643 H      606  EDO606      0.0000
@<TRIPOS>BOND
     1     1     2    1
     2     1     3    1
     3     1     5    1
     4     1     6    1
     5     2     7    1
     6     3     4    1
     7     3     8    1
     8     3     9    1
     9     4    10    1

