EDO_1_E_607
  -ISIS-            3D

 10  9  0  0  0  0  0  0  0  0  1 V2000
   72.3080   24.0950   31.6490 C   0  0  0  0  0
   72.6640   25.1960   32.4990 O   0  0  0  0  0
   73.3580   23.0690   31.3980 C   0  0  0  0  0
   73.5560   22.1230   32.4400 O   0  0  0  0  0
   71.9894   24.5211   30.6724 H   0  0  0  0  0
   71.4076   23.5948   32.0667 H   0  0  0  0  0
   71.8763   25.6817   32.7056 H   0  0  0  0  0
   74.3210   23.5793   31.1808 H   0  0  0  0  0
   73.0962   22.5047   30.4763 H   0  0  0  0  0
   74.3298   21.6124   32.2410 H   0  0  0  0  0
  1  2  1  0  0  0
  1  3  1  0  0  0
  1  5  1  0  0  0
  1  6  1  0  0  0
  2  7  1  0  0  0
  3  4  1  0  0  0
  3  8  1  0  0  0
  3  9  1  0  0  0
  4 10  1  0  0  0
M  END
$$$$
