EDO_1_E_602
  -ISIS-            3D

 10  9  0  0  0  0  0  0  0  0  1 V2000
   58.6750   22.9950   22.3690 C   0  0  0  0  0
   57.7800   22.8510   21.3210 O   0  0  0  0  0
   60.0910   23.0740   21.9090 C   0  0  0  0  0
   60.4530   24.4060   21.5680 O   0  0  0  0  0
   58.5589   22.1205   23.0455 H   0  0  0  0  0
   58.4160   23.8921   22.9709 H   0  0  0  0  0
   56.8973   22.9299   21.6579 H   0  0  0  0  0
   60.2593   22.3990   21.0431 H   0  0  0  0  0
   60.7677   22.7281   22.7199 H   0  0  0  0  0
   61.2997   24.3866   21.1413 H   0  0  0  0  0
  1  2  1  0  0  0
  1  3  1  0  0  0
  1  5  1  0  0  0
  1  6  1  0  0  0
  2  7  1  0  0  0
  3  4  1  0  0  0
  3  8  1  0  0  0
  3  9  1  0  0  0
  4 10  1  0  0  0
M  END
$$$$
