@<TRIPOS>MOLECULE
EDO_1_F_201
 10 9 0 0 0
SMALL
NO_CHARGES

@<TRIPOS>ATOM
      1 C1         47.1490    8.3910   21.0160 C.3    201  EDO201      0.0000
      2 O1         48.2600    9.2780   21.0060 O.3    201  EDO201      0.0000
      3 C2         46.3680    8.4290   19.7650 C.3    201  EDO201      0.0000
      4 O2         44.9940    8.7070   19.8000 O.3    201  EDO201      0.0000
      5 H          46.4988    8.6772   21.8689 H      201  EDO201      0.0000
      6 H          47.4994    7.3603   21.2368 H      201  EDO201      0.0000
      7 H          48.9378    8.9127   20.4521 H      201  EDO201      0.0000
      8 H          46.5086    7.4672   19.2251 H      201  EDO201      0.0000
      9 H          46.8205    9.1859   19.0894 H      201  EDO201      0.0000
     10 H          44.5555    8.0187   20.2829 H      201  EDO201      0.0000
@<TRIPOS>BOND
     1     1     2    1
     2     1     3    1
     3     1     5    1
     4     1     6    1
     5     2     7    1
     6     3     4    1
     7     3     8    1
     8     3     9    1
     9     4    10    1

