@<TRIPOS>MOLECULE
EDO_1_E_605
 10 9 0 0 0
SMALL
NO_CHARGES

@<TRIPOS>ATOM
      1 C1         49.3630   18.1330   26.8050 C.3    605  EDO605      0.0000
      2 O1         49.8470   19.2070   26.0080 O.3    605  EDO605      0.0000
      3 C2         47.8930   18.1920   27.0520 C.3    605  EDO605      0.0000
      4 O2         47.5190   19.0550   28.1070 O.3    605  EDO605      0.0000
      5 H          49.9224   18.1182   27.7630 H      605  EDO605      0.0000
      6 H          49.6167   17.1804   26.2914 H      605  EDO605      0.0000
      7 H          49.4471   19.1579   25.1498 H      605  EDO605      0.0000
      8 H          47.5182   17.1734   27.2924 H      605  EDO605      0.0000
      9 H          47.3542   18.4995   26.1321 H      605  EDO605      0.0000
     10 H          47.9069   18.7429   28.9138 H      605  EDO605      0.0000
@<TRIPOS>BOND
     1     1     2    1
     2     1     3    1
     3     1     5    1
     4     1     6    1
     5     2     7    1
     6     3     4    1
     7     3     8    1
     8     3     9    1
     9     4    10    1

