@<TRIPOS>MOLECULE
EDO_1_E_614
 10 9 0 0 0
SMALL
NO_CHARGES

@<TRIPOS>ATOM
      1 C1         65.8280   15.5960   19.6940 C.3    614  EDO614      0.0000
      2 O1         66.2390   15.8290   21.0270 O.3    614  EDO614      0.0000
      3 C2         65.0530   16.7220   19.0910 C.3    614  EDO614      0.0000
      4 O2         64.8690   17.8710   19.9120 O.3    614  EDO614      0.0000
      5 H          65.2206   14.6658   19.6650 H      614  EDO614      0.0000
      6 H          66.7293   15.3930   19.0761 H      614  EDO614      0.0000
      7 H          66.7239   15.0733   21.3305 H      614  EDO614      0.0000
      8 H          64.0474   16.3598   18.7887 H      614  EDO614      0.0000
      9 H          65.5420   17.0514   18.1499 H      614  EDO614      0.0000
     10 H          65.2705   17.6713   20.7503 H      614  EDO614      0.0000
@<TRIPOS>BOND
     1     1     2    1
     2     1     3    1
     3     1     5    1
     4     1     6    1
     5     2     7    1
     6     3     4    1
     7     3     8    1
     8     3     9    1
     9     4    10    1

