@<TRIPOS>MOLECULE
EDO_1_E_608
 10 9 0 0 0
SMALL
NO_CHARGES

@<TRIPOS>ATOM
      1 C1         52.7830   28.7120   39.9750 C.3    608  EDO608      0.0000
      2 O1         51.4610   29.0160   40.3680 O.3    608  EDO608      0.0000
      3 C2         53.0940   29.1050   38.5850 C.3    608  EDO608      0.0000
      4 O2         53.0780   30.5030   38.3620 O.3    608  EDO608      0.0000
      5 H          52.9320   27.6186   40.0979 H      608  EDO608      0.0000
      6 H          53.4895   29.1985   40.6805 H      608  EDO608      0.0000
      7 H          51.2836   29.9045   40.0835 H      608  EDO608      0.0000
      8 H          52.3632   28.6363   37.8929 H      608  EDO608      0.0000
      9 H          54.0882   28.7044   38.2899 H      608  EDO608      0.0000
     10 H          53.8956   30.8703   38.6714 H      608  EDO608      0.0000
@<TRIPOS>BOND
     1     1     2    1
     2     1     3    1
     3     1     5    1
     4     1     6    1
     5     2     7    1
     6     3     4    1
     7     3     8    1
     8     3     9    1
     9     4    10    1

