EDO_1_F_201
  -ISIS-            3D

 10  9  0  0  0  0  0  0  0  0  1 V2000
   47.1490    8.3910   21.0160 C   0  0  0  0  0
   48.2600    9.2780   21.0060 O   0  0  0  0  0
   46.3680    8.4290   19.7650 C   0  0  0  0  0
   44.9940    8.7070   19.8000 O   0  0  0  0  0
   46.4988    8.6772   21.8689 H   0  0  0  0  0
   47.4994    7.3603   21.2368 H   0  0  0  0  0
   48.9378    8.9127   20.4521 H   0  0  0  0  0
   46.5086    7.4672   19.2251 H   0  0  0  0  0
   46.8205    9.1859   19.0894 H   0  0  0  0  0
   44.5555    8.0187   20.2829 H   0  0  0  0  0
  1  2  1  0  0  0
  1  3  1  0  0  0
  1  5  1  0  0  0
  1  6  1  0  0  0
  2  7  1  0  0  0
  3  4  1  0  0  0
  3  8  1  0  0  0
  3  9  1  0  0  0
  4 10  1  0  0  0
M  END
$$$$
