@<TRIPOS>MOLECULE
EDO_1_E_611
 10 9 0 0 0
SMALL
NO_CHARGES

@<TRIPOS>ATOM
      1 C1         64.6220   18.4230   41.9570 C.3    611  EDO611      0.0000
      2 O1         65.7920   18.4440   41.1400 O.3    611  EDO611      0.0000
      3 C2         64.2000   17.0650   42.3900 C.3    611  EDO611      0.0000
      4 O2         65.0990   16.5000   43.3380 O.3    611  EDO611      0.0000
      5 H          63.7925   18.8947   41.3865 H      611  EDO611      0.0000
      6 H          64.7899   19.0655   42.8480 H      611  EDO611      0.0000
      7 H          65.9838   19.3446   40.9147 H      611  EDO611      0.0000
      8 H          64.1104   16.3859   41.5159 H      611  EDO611      0.0000
      9 H          63.1937   17.1108   42.8570 H      611  EDO611      0.0000
     10 H          65.9614   16.5156   42.9412 H      611  EDO611      0.0000
@<TRIPOS>BOND
     1     1     2    1
     2     1     3    1
     3     1     5    1
     4     1     6    1
     5     2     7    1
     6     3     4    1
     7     3     8    1
     8     3     9    1
     9     4    10    1

