@<TRIPOS>MOLECULE
DMS_1_A_1004
 10 9 0 0 0
SMALL
NO_CHARGES

@<TRIPOS>ATOM
      1 S           2.3700  -18.7630    8.1690 S.o   1004  DMS1004      0.0000
      2 O           3.6480  -18.8190    8.9380 O.2   1004  DMS1004      0.0000
      3 C1          1.2120  -18.0490    9.2900 C.3   1004  DMS1004      0.0000
      4 C2          1.7490  -20.4110    8.3360 C.3   1004  DMS1004      0.0000
      5 H           0.1822  -18.1588    8.8934 H     1004  DMS1004      0.0000
      6 H           1.4329  -16.9673    9.4029 H     1004  DMS1004      0.0000
      7 H           1.2773  -18.5313   10.2865 H     1004  DMS1004      0.0000
      8 H           0.7036  -20.4615    7.9678 H     1004  DMS1004      0.0000
      9 H           1.7839  -20.7416    9.3939 H     1004  DMS1004      0.0000
     10 H           2.3709  -21.0990    7.7265 H     1004  DMS1004      0.0000
@<TRIPOS>BOND
     1     1     2    2
     2     1     3    1
     3     1     4    1
     4     3     5    1
     5     3     6    1
     6     3     7    1
     7     4     8    1
     8     4     9    1
     9     4    10    1

