DMS_2_A_1005
  -ISIS-            3D

 10  9  0  0  0  0  0  0  0  0  1 V2000
  -21.1150   14.6150   -7.8900 S   0  0  0  0  0
  -22.5860   14.6700   -7.8150 O   0  0  0  0  0
  -20.7770   13.1990   -8.8720 C   0  0  0  0  0
  -20.6420   13.8820   -6.3680 C   0  0  0  0  0
  -19.6948   12.9586   -8.8333 H   0  0  0  0  0
  -21.0529   13.4101   -9.9256 H   0  0  0  0  0
  -21.3615   12.3242   -8.5200 H   0  0  0  0  0
  -19.5638   13.6220   -6.3897 H   0  0  0  0  0
  -21.2371   12.9676   -6.1665 H   0  0  0  0  0
  -20.8123   14.6055   -5.5445 H   0  0  0  0  0
  1  2  2  0  0  0
  1  3  1  0  0  0
  1  4  1  0  0  0
  3  5  1  0  0  0
  3  6  1  0  0  0
  3  7  1  0  0  0
  4  8  1  0  0  0
  4  9  1  0  0  0
  4 10  1  0  0  0
M  END
$$$$
