@<TRIPOS>MOLECULE
DMS_2_A_1002
 10 9 0 0 0
SMALL
NO_CHARGES

@<TRIPOS>ATOM
      1 S          -7.0540  -28.1590  -21.4260 S.o   1002  DMS1002      0.0000
      2 O          -7.7480  -27.1510  -22.2250 O.2   1002  DMS1002      0.0000
      3 C1         -5.6710  -28.6240  -22.4240 C.3   1002  DMS1002      0.0000
      4 C2         -6.1710  -27.2820  -20.1710 C.3   1002  DMS1002      0.0000
      5 H          -4.9928  -29.2828  -21.8441 H     1002  DMS1002      0.0000
      6 H          -5.1129  -27.7254  -22.7591 H     1002  DMS1002      0.0000
      7 H          -6.0299  -29.1784  -23.3153 H     1002  DMS1002      0.0000
      8 H          -5.4909  -27.9749  -19.6348 H     1002  DMS1002      0.0000
      9 H          -6.8922  -26.8559  -19.4439 H     1002  DMS1002      0.0000
     10 H          -5.5792  -26.4563  -20.6171 H     1002  DMS1002      0.0000
@<TRIPOS>BOND
     1     1     2    2
     2     1     3    1
     3     1     4    1
     4     3     5    1
     5     3     6    1
     6     3     7    1
     7     4     8    1
     8     4     9    1
     9     4    10    1

