DMS_1_A_1002
  -ISIS-            3D

 10  9  0  0  0  0  0  0  0  0  1 V2000
    7.0540  -28.1590   21.4260 S   0  0  0  0  0
    7.7480  -27.1510   22.2250 O   0  0  0  0  0
    5.6710  -28.6240   22.4240 C   0  0  0  0  0
    6.1710  -27.2820   20.1710 C   0  0  0  0  0
    4.9928  -29.2828   21.8441 H   0  0  0  0  0
    5.1129  -27.7254   22.7591 H   0  0  0  0  0
    6.0299  -29.1784   23.3153 H   0  0  0  0  0
    5.4909  -27.9749   19.6348 H   0  0  0  0  0
    6.8922  -26.8559   19.4439 H   0  0  0  0  0
    5.5792  -26.4563   20.6171 H   0  0  0  0  0
  1  2  2  0  0  0
  1  3  1  0  0  0
  1  4  1  0  0  0
  3  5  1  0  0  0
  3  6  1  0  0  0
  3  7  1  0  0  0
  4  8  1  0  0  0
  4  9  1  0  0  0
  4 10  1  0  0  0
M  END
$$$$
