DMS_2_A_1005
  -ISIS-            3D

 10  9  0  0  0  0  0  0  0  0  1 V2000
   -5.5170    0.2010  -18.2470 S   0  0  0  0  0
   -4.7620    1.3990  -18.6590 O   0  0  0  0  0
   -6.1760   -0.4470  -19.7580 C   0  0  0  0  0
   -7.0120    0.8320  -17.5920 C   0  0  0  0  0
   -6.9054   -1.2526  -19.5361 H   0  0  0  0  0
   -5.3509   -0.8713  -20.3661 H   0  0  0  0  0
   -6.6771    0.3536  -20.3403 H   0  0  0  0  0
   -7.7263    0.0027  -17.4127 H   0  0  0  0  0
   -7.4682    1.5642  -18.2898 H   0  0  0  0  0
   -6.8071    1.3377  -16.6261 H   0  0  0  0  0
  1  2  2  0  0  0
  1  3  1  0  0  0
  1  4  1  0  0  0
  3  5  1  0  0  0
  3  6  1  0  0  0
  3  7  1  0  0  0
  4  8  1  0  0  0
  4  9  1  0  0  0
  4 10  1  0  0  0
M  END
$$$$
