@<TRIPOS>MOLECULE
DMS_1_A_1002
 10 9 0 0 0
SMALL
NO_CHARGES

@<TRIPOS>ATOM
      1 S           6.9280  -28.0500   21.5130 S.o   1002  DMS1002      0.0000
      2 O           7.6400  -27.0760   22.3440 O.2   1002  DMS1002      0.0000
      3 C1          5.6090  -28.6520   22.5390 C.3   1002  DMS1002      0.0000
      4 C2          5.9970  -27.0960   20.3720 C.3   1002  DMS1002      0.0000
      5 H           4.9264  -29.2866   21.9377 H     1002  DMS1002      0.0000
      6 H           5.0384  -27.8046   22.9718 H     1002  DMS1002      0.0000
      7 H           6.0328  -29.2619   23.3629 H     1002  DMS1002      0.0000
      8 H           5.3089  -27.7548   19.8039 H     1002  DMS1002      0.0000
      9 H           6.6850  -26.5987   19.6581 H     1002  DMS1002      0.0000
     10 H           5.4071  -26.3212   20.9035 H     1002  DMS1002      0.0000
@<TRIPOS>BOND
     1     1     2    2
     2     1     3    1
     3     1     4    1
     4     3     5    1
     5     3     6    1
     6     3     7    1
     7     4     8    1
     8     4     9    1
     9     4    10    1

