DMS_2_A_1003
  -ISIS-            3D

 10  9  0  0  0  0  0  0  0  0  1 V2000
   -6.2470   -1.1130    6.3920 S   0  0  0  0  0
   -7.1560   -0.9150    7.5030 O   0  0  0  0  0
   -7.2850   -0.9890    4.9580 C   0  0  0  0  0
   -5.9030   -2.8380    6.3320 C   0  0  0  0  0
   -6.7086   -1.2685    4.0525 H   0  0  0  0  0
   -7.6375    0.0571    4.8482 H   0  0  0  0  0
   -8.1642   -1.6586    5.0559 H   0  0  0  0  0
   -5.3443   -3.0784    5.4044 H   0  0  0  0  0
   -6.8450   -3.4235    6.3560 H   0  0  0  0  0
   -5.2811   -3.1202    7.2061 H   0  0  0  0  0
  1  2  2  0  0  0
  1  3  1  0  0  0
  1  4  1  0  0  0
  3  5  1  0  0  0
  3  6  1  0  0  0
  3  7  1  0  0  0
  4  8  1  0  0  0
  4  9  1  0  0  0
  4 10  1  0  0  0
M  END
$$$$
