@<TRIPOS>MOLECULE
DMS_2_A_1003
 10 9 0 0 0
SMALL
NO_CHARGES

@<TRIPOS>ATOM
      1 S          -6.2470   -1.1130    6.3920 S.o   1003  DMS1003      0.0000
      2 O          -7.1560   -0.9150    7.5030 O.2   1003  DMS1003      0.0000
      3 C1         -7.2850   -0.9890    4.9580 C.3   1003  DMS1003      0.0000
      4 C2         -5.9030   -2.8380    6.3320 C.3   1003  DMS1003      0.0000
      5 H          -6.7086   -1.2685    4.0525 H     1003  DMS1003      0.0000
      6 H          -7.6375    0.0571    4.8482 H     1003  DMS1003      0.0000
      7 H          -8.1642   -1.6586    5.0559 H     1003  DMS1003      0.0000
      8 H          -5.3443   -3.0784    5.4044 H     1003  DMS1003      0.0000
      9 H          -6.8450   -3.4235    6.3560 H     1003  DMS1003      0.0000
     10 H          -5.2811   -3.1202    7.2061 H     1003  DMS1003      0.0000
@<TRIPOS>BOND
     1     1     2    2
     2     1     3    1
     3     1     4    1
     4     3     5    1
     5     3     6    1
     6     3     7    1
     7     4     8    1
     8     4     9    1
     9     4    10    1

