@<TRIPOS>MOLECULE
EDO_1_H_304
 10 9 0 0 0
SMALL
NO_CHARGES

@<TRIPOS>ATOM
      1 C1         25.4450   15.1420   -4.2700 C.3    304  EDO304      0.0000
      2 O1         25.1910   13.8530   -4.8120 O.3    304  EDO304      0.0000
      3 C2         24.6320   15.2910   -3.0040 C.3    304  EDO304      0.0000
      4 O2         24.6700   16.6660   -2.5710 O.3    304  EDO304      0.0000
      5 H          25.1555   15.9134   -5.0147 H      304  EDO304      0.0000
      6 H          26.5284   15.2622   -4.0585 H      304  EDO304      0.0000
      7 H          25.7459   13.7337   -5.5717 H      304  EDO304      0.0000
      8 H          25.0414   14.6467   -2.1987 H      304  EDO304      0.0000
      9 H          23.5775   14.9824   -3.1680 H      304  EDO304      0.0000
     10 H          23.9590   17.1311   -2.9916 H      304  EDO304      0.0000
@<TRIPOS>BOND
     1     1     2    1
     2     1     3    1
     3     1     5    1
     4     1     6    1
     5     2     7    1
     6     3     4    1
     7     3     8    1
     8     3     9    1
     9     4    10    1

