@<TRIPOS>MOLECULE
EDO_1_H_302
 10 9 0 0 0
SMALL
NO_CHARGES

@<TRIPOS>ATOM
      1 C1         21.3370  -16.0070    2.0650 C.3    302  EDO302      0.0000
      2 O1         20.8850  -16.0480    3.4200 O.3    302  EDO302      0.0000
      3 C2         20.1440  -15.9750    1.1310 C.3    302  EDO302      0.0000
      4 O2         20.6900  -15.7160   -0.1670 O.3    302  EDO302      0.0000
      5 H          21.9618  -16.9026    1.8672 H      302  EDO302      0.0000
      6 H          21.9851  -15.1167    1.9174 H      302  EDO302      0.0000
      7 H          20.7241  -15.1597    3.7101 H      302  EDO302      0.0000
      8 H          19.4366  -15.1650    1.4065 H      302  EDO302      0.0000
      9 H          19.5980  -16.9414    1.1386 H      302  EDO302      0.0000
     10 H          19.9825  -15.7480   -0.7973 H      302  EDO302      0.0000
@<TRIPOS>BOND
     1     1     2    1
     2     1     3    1
     3     1     5    1
     4     1     6    1
     5     2     7    1
     6     3     4    1
     7     3     8    1
     8     3     9    1
     9     4    10    1

