@<TRIPOS>MOLECULE
EDO_1_C_202
 10 9 0 0 0
SMALL
NO_CHARGES

@<TRIPOS>ATOM
      1 C1        -12.8080  -16.2860   -3.0180 C.3    202  EDO202      0.0000
      2 O1        -12.8030  -16.3120   -1.5960 O.3    202  EDO202      0.0000
      3 C2        -13.9200  -17.2030   -3.4690 C.3    202  EDO202      0.0000
      4 O2        -15.0080  -17.0550   -2.5520 O.3    202  EDO202      0.0000
      5 H         -11.8229  -16.6126   -3.4080 H      202  EDO202      0.0000
      6 H         -12.9833  -15.2461   -3.3650 H      202  EDO202      0.0000
      7 H         -13.6907  -16.1506   -1.2994 H      202  EDO202      0.0000
      8 H         -13.5758  -18.2592   -3.4610 H      202  EDO202      0.0000
      9 H         -14.2468  -16.9592   -4.5012 H      202  EDO202      0.0000
     10 H         -15.6878  -17.6676   -2.7987 H      202  EDO202      0.0000
@<TRIPOS>BOND
     1     1     2    1
     2     1     3    1
     3     1     5    1
     4     1     6    1
     5     2     7    1
     6     3     4    1
     7     3     8    1
     8     3     9    1
     9     4    10    1

