EDO_1_H_301
  -ISIS-            3D

 10  9  0  0  0  0  0  0  0  0  1 V2000
   31.7050   12.5760   -2.7850 C   0  0  0  0  0
   32.2720   13.7870   -2.2590 O   0  0  0  0  0
   32.6830   11.4230   -2.6780 C   0  0  0  0  0
   33.2850   11.1040   -3.9150 O   0  0  0  0  0
   31.3734   12.7370   -3.8318 H   0  0  0  0  0
   30.7910   12.3481   -2.1976 H   0  0  0  0  0
   32.9887   14.0399   -2.8272 H   0  0  0  0  0
   32.1623   10.5209   -2.2905 H   0  0  0  0  0
   33.4797   11.6525   -1.9408 H   0  0  0  0  0
   32.6741   10.5947   -4.4308 H   0  0  0  0  0
  1  2  1  0  0  0
  1  3  1  0  0  0
  1  5  1  0  0  0
  1  6  1  0  0  0
  2  7  1  0  0  0
  3  4  1  0  0  0
  3  8  1  0  0  0
  3  9  1  0  0  0
  4 10  1  0  0  0
M  END
$$$$
