EDO_1_H_305
  -ISIS-            3D

 10  9  0  0  0  0  0  0  0  0  1 V2000
   30.9520   15.1250    6.6110 C   0  0  0  0  0
   31.6930   16.3050    6.9640 O   0  0  0  0  0
   31.9080   14.0960    5.9730 C   0  0  0  0  0
   32.9690   14.7390    5.2360 O   0  0  0  0  0
   30.1585   15.4010    5.8843 H   0  0  0  0  0
   30.4552   14.6986    7.5073 H   0  0  0  0  0
   31.0887   16.9313    7.3392 H   0  0  0  0  0
   31.3553   13.4087    5.3004 H   0  0  0  0  0
   32.3667   13.4705    6.7679 H   0  0  0  0  0
   33.1717   15.5421    5.7021 H   0  0  0  0  0
  1  2  1  0  0  0
  1  3  1  0  0  0
  1  5  1  0  0  0
  1  6  1  0  0  0
  2  7  1  0  0  0
  3  4  1  0  0  0
  3  8  1  0  0  0
  3  9  1  0  0  0
  4 10  1  0  0  0
M  END
$$$$
