EDO_1_H_303
  -ISIS-            3D

 10  9  0  0  0  0  0  0  0  0  1 V2000
   33.3220   18.6470   -0.4110 C   0  0  0  0  0
   33.2910   17.4020    0.3370 O   0  0  0  0  0
   33.2040   18.4960   -1.9330 C   0  0  0  0  0
   34.4480   18.1470   -2.5860 O   0  0  0  0  0
   34.2417   19.2136   -0.1531 H   0  0  0  0  0
   32.4724   19.2651   -0.0505 H   0  0  0  0  0
   34.1571   17.0190    0.2913 H   0  0  0  0  0
   32.8647   19.4619   -2.3636 H   0  0  0  0  0
   32.4203   17.7516   -2.1877 H   0  0  0  0  0
   34.5244   17.2018   -2.5794 H   0  0  0  0  0
  1  2  1  0  0  0
  1  3  1  0  0  0
  1  5  1  0  0  0
  1  6  1  0  0  0
  2  7  1  0  0  0
  3  4  1  0  0  0
  3  8  1  0  0  0
  3  9  1  0  0  0
  4 10  1  0  0  0
M  END
$$$$
