@<TRIPOS>MOLECULE
DMS_2_A_1003
 10 9 0 0 0
SMALL
NO_CHARGES

@<TRIPOS>ATOM
      1 S          -6.2230   -0.9980    6.2800 S.o   1003  DMS1003      0.0000
      2 O          -7.1200   -0.6830    7.3990 O.2   1003  DMS1003      0.0000
      3 C1         -7.2880   -0.9150    4.8480 C.3   1003  DMS1003      0.0000
      4 C2         -5.9640   -2.7400    6.3350 C.3   1003  DMS1003      0.0000
      5 H          -6.7425   -1.2821    3.9548 H     1003  DMS1003      0.0000
      6 H          -7.5907    0.1382    4.6761 H     1003  DMS1003      0.0000
      7 H          -8.1958   -1.5330    5.0056 H     1003  DMS1003      0.0000
      8 H          -5.4338   -3.0702    5.4185 H     1003  DMS1003      0.0000
      9 H          -6.9334   -3.2740    6.4113 H     1003  DMS1003      0.0000
     10 H          -5.3422   -2.9922    7.2182 H     1003  DMS1003      0.0000
@<TRIPOS>BOND
     1     1     2    2
     2     1     3    1
     3     1     4    1
     4     3     5    1
     5     3     6    1
     6     3     7    1
     7     4     8    1
     8     4     9    1
     9     4    10    1

