@<TRIPOS>MOLECULE
DMS_1_A_1005
 10 9 0 0 0
SMALL
NO_CHARGES

@<TRIPOS>ATOM
      1 S          21.2380   14.6180    8.0710 S.o   1005  DMS1005      0.0000
      2 O          22.7010   14.5500    7.9040 O.2   1005  DMS1005      0.0000
      3 C1         20.8440   13.1800    9.0110 C.3   1005  DMS1005      0.0000
      4 C2         20.5930   13.9950    6.5520 C.3   1005  DMS1005      0.0000
      5 H          19.7449   13.0321    9.0368 H     1005  DMS1005      0.0000
      6 H          21.2058   13.3130   10.0512 H     1005  DMS1005      0.0000
      7 H          21.3274   12.2800    8.5783 H     1005  DMS1005      0.0000
      8 H          19.5004   13.8268    6.6437 H     1005  DMS1005      0.0000
      9 H          21.0908   13.0440    6.2718 H     1005  DMS1005      0.0000
     10 H          20.7687   14.7391    5.7482 H     1005  DMS1005      0.0000
@<TRIPOS>BOND
     1     1     2    2
     2     1     3    1
     3     1     4    1
     4     3     5    1
     5     3     6    1
     6     3     7    1
     7     4     8    1
     8     4     9    1
     9     4    10    1

