@<TRIPOS>MOLECULE
DMS_2_A_1006
 10 9 0 0 0
SMALL
NO_CHARGES

@<TRIPOS>ATOM
      1 S          -5.7350    0.5010  -18.2360 S.o   1006  DMS1006      0.0000
      2 O          -6.5920    1.1480  -17.2410 O.2   1006  DMS1006      0.0000
      3 C1         -4.6360    1.7340  -18.8810 C.3   1006  DMS1006      0.0000
      4 C2         -6.7110    0.5600  -19.6950 C.3   1006  DMS1006      0.0000
      5 H          -4.1213    1.3559  -19.7881 H     1006  DMS1006      0.0000
      6 H          -3.8669    1.9653  -18.1157 H     1006  DMS1006      0.0000
      7 H          -5.1812    2.6696  -19.1222 H     1006  DMS1006      0.0000
      8 H          -6.1144    0.2366  -20.5726 H     1006  DMS1006      0.0000
      9 H          -7.1105    1.5797  -19.8728 H     1006  DMS1006      0.0000
     10 H          -7.5681   -0.1360  -19.5859 H     1006  DMS1006      0.0000
@<TRIPOS>BOND
     1     1     2    2
     2     1     3    1
     3     1     4    1
     4     3     5    1
     5     3     6    1
     6     3     7    1
     7     4     8    1
     8     4     9    1
     9     4    10    1

