@<TRIPOS>MOLECULE
DMS_1_A_1002
 10 9 0 0 0
SMALL
NO_CHARGES

@<TRIPOS>ATOM
      1 S           7.0220  -28.1220   21.5220 S.o   1002  DMS1002      0.0000
      2 O           7.6780  -27.1130   22.3310 O.2   1002  DMS1002      0.0000
      3 C1          5.7290  -28.7650   22.5540 C.3   1002  DMS1002      0.0000
      4 C2          6.0330  -27.2420   20.3550 C.3   1002  DMS1002      0.0000
      5 H           5.0811  -29.4448   21.9637 H     1002  DMS1002      0.0000
      6 H           5.1155  -27.9377   22.9666 H     1002  DMS1002      0.0000
      7 H           6.1771  -29.3363   23.3927 H     1002  DMS1002      0.0000
      8 H           5.3832  -27.9511   19.8026 H     1002  DMS1002      0.0000
      9 H           6.6927  -26.7228   19.6300 H     1002  DMS1002      0.0000
     10 H           5.4012  -26.4899   20.8711 H     1002  DMS1002      0.0000
@<TRIPOS>BOND
     1     1     2    2
     2     1     3    1
     3     1     4    1
     4     3     5    1
     5     3     6    1
     6     3     7    1
     7     4     8    1
     8     4     9    1
     9     4    10    1

