@<TRIPOS>MOLECULE
DMS_1_A_1004
 10 9 0 0 0
SMALL
NO_CHARGES

@<TRIPOS>ATOM
      1 S           2.4490  -18.9530    8.1320 S.o   1004  DMS1004      0.0000
      2 O           3.7180  -18.7990    8.8950 O.2   1004  DMS1004      0.0000
      3 C1          1.2460  -18.0440    9.0600 C.3   1004  DMS1004      0.0000
      4 C2          1.8940  -20.5380    8.7010 C.3   1004  DMS1004      0.0000
      5 H           0.2252  -18.2915    8.7035 H     1004  DMS1004      0.0000
      6 H           1.4177  -16.9580    8.9126 H     1004  DMS1004      0.0000
      7 H           1.3260  -18.2732   10.1425 H     1004  DMS1004      0.0000
      8 H           0.8533  -20.7190    8.3622 H     1004  DMS1004      0.0000
      9 H           1.9377  -20.5998    9.8079 H     1004  DMS1004      0.0000
     10 H           2.5454  -21.3278    8.2737 H     1004  DMS1004      0.0000
@<TRIPOS>BOND
     1     1     2    2
     2     1     3    1
     3     1     4    1
     4     3     5    1
     5     3     6    1
     6     3     7    1
     7     4     8    1
     8     4     9    1
     9     4    10    1

