EDO_1_E_908
  -ISIS-            3D

 10  9  0  0  0  0  0  0  0  0  1 V2000
  -15.4060   56.3160   16.5650 C   0  0  0  0  0
  -15.0760   56.0130   17.9280 O   0  0  0  0  0
  -14.2000   56.9260   15.8710 C   0  0  0  0  0
  -14.4490   57.1340   14.4750 O   0  0  0  0  0
  -16.2654   57.0186   16.5352 H   0  0  0  0  0
  -15.7152   55.3839   16.0462 H   0  0  0  0  0
  -15.8406   55.6310   18.3381 H   0  0  0  0  0
  -13.3215   56.2555   15.9848 H   0  0  0  0  0
  -13.9379   57.8950   16.3467 H   0  0  0  0  0
  -13.6686   57.5086   14.0885 H   0  0  0  0  0
  1  2  1  0  0  0
  1  3  1  0  0  0
  1  5  1  0  0  0
  1  6  1  0  0  0
  2  7  1  0  0  0
  3  4  1  0  0  0
  3  8  1  0  0  0
  3  9  1  0  0  0
  4 10  1  0  0  0
M  END
$$$$
