@<TRIPOS>MOLECULE
EDO_1_E_908
 10 9 0 0 0
SMALL
NO_CHARGES

@<TRIPOS>ATOM
      1 C1        -15.4060   56.3160   16.5650 C.3    908  EDO908      0.0000
      2 O1        -15.0760   56.0130   17.9280 O.3    908  EDO908      0.0000
      3 C2        -14.2000   56.9260   15.8710 C.3    908  EDO908      0.0000
      4 O2        -14.4490   57.1340   14.4750 O.3    908  EDO908      0.0000
      5 H         -16.2654   57.0186   16.5352 H      908  EDO908      0.0000
      6 H         -15.7152   55.3839   16.0462 H      908  EDO908      0.0000
      7 H         -15.8406   55.6310   18.3381 H      908  EDO908      0.0000
      8 H         -13.3215   56.2555   15.9848 H      908  EDO908      0.0000
      9 H         -13.9379   57.8950   16.3467 H      908  EDO908      0.0000
     10 H         -13.6686   57.5086   14.0885 H      908  EDO908      0.0000
@<TRIPOS>BOND
     1     1     2    1
     2     1     3    1
     3     1     5    1
     4     1     6    1
     5     2     7    1
     6     3     4    1
     7     3     8    1
     8     3     9    1
     9     4    10    1

