EDO_1_L_306
  -ISIS-            3D

 10  9  0  0  0  0  0  0  0  0  1 V2000
  -12.9110   21.1000  -21.5670 C   0  0  0  0  0
  -13.7520   20.1440  -20.9110 O   0  0  0  0  0
  -11.4930   20.9540  -21.0570 C   0  0  0  0  0
  -10.5970   21.0550  -22.1670 O   0  0  0  0  0
  -13.2894   22.1280  -21.3854 H   0  0  0  0  0
  -12.9602   20.9205  -22.6620 H   0  0  0  0  0
  -14.6412   20.2740  -21.2132 H   0  0  0  0  0
  -11.3416   19.9782  -20.5485 H   0  0  0  0  0
  -11.2546   21.7463  -20.3180 H   0  0  0  0  0
  -10.5107   20.1960  -22.5590 H   0  0  0  0  0
  1  2  1  0  0  0
  1  3  1  0  0  0
  1  5  1  0  0  0
  1  6  1  0  0  0
  2  7  1  0  0  0
  3  4  1  0  0  0
  3  8  1  0  0  0
  3  9  1  0  0  0
  4 10  1  0  0  0
M  END
$$$$
