EDO_1_E_907
  -ISIS-            3D

 10  9  0  0  0  0  0  0  0  0  1 V2000
    8.9350   65.8540   14.5730 C   0  0  0  0  0
    8.8740   66.8110   13.5070 O   0  0  0  0  0
   10.3890   65.5290   14.8950 C   0  0  0  0  0
   11.2570   66.6000   14.5060 O   0  0  0  0  0
    8.3688   64.9429   14.2916 H   0  0  0  0  0
    8.4348   66.2888   15.4640 H   0  0  0  0  0
    9.6114   67.4004   13.6117 H   0  0  0  0  0
   10.6917   64.6111   14.3466 H   0  0  0  0  0
   10.5102   65.3158   15.9779 H   0  0  0  0  0
   12.1499   66.3382   14.6867 H   0  0  0  0  0
  1  2  1  0  0  0
  1  3  1  0  0  0
  1  5  1  0  0  0
  1  6  1  0  0  0
  2  7  1  0  0  0
  3  4  1  0  0  0
  3  8  1  0  0  0
  3  9  1  0  0  0
  4 10  1  0  0  0
M  END
$$$$
