EDO_1_H_405
  -ISIS-            3D

 10  9  0  0  0  0  0  0  0  0  1 V2000
    3.3390   40.7700   15.8070 C   0  0  0  0  0
    4.1430   39.6920   15.3090 O   0  0  0  0  0
    2.0590   40.8700   14.9960 C   0  0  0  0  0
    2.3420   41.4850   13.7330 O   0  0  0  0  0
    3.9094   41.7219   15.7711 H   0  0  0  0  0
    3.0930   40.5719   16.8721 H   0  0  0  0  0
    4.9306   39.6431   15.8342 H   0  0  0  0  0
    1.3172   41.4990   15.5307 H   0  0  0  0  0
    1.5936   39.8740   14.8432 H   0  0  0  0  0
    2.9841   40.9353   13.3007 H   0  0  0  0  0
  1  2  1  0  0  0
  1  3  1  0  0  0
  1  5  1  0  0  0
  1  6  1  0  0  0
  2  7  1  0  0  0
  3  4  1  0  0  0
  3  8  1  0  0  0
  3  9  1  0  0  0
  4 10  1  0  0  0
M  END
$$$$
