EDO_1_L_301
  -ISIS-            3D

 10  9  0  0  0  0  0  0  0  0  1 V2000
  -10.8520    8.9560  -13.8590 C   0  0  0  0  0
  -10.2930   10.1570  -14.3980 O   0  0  0  0  0
  -10.2180    7.7630  -14.5510 C   0  0  0  0  0
  -10.4020    7.8780  -15.9650 O   0  0  0  0  0
  -11.9487    8.9637  -14.0293 H   0  0  0  0  0
  -10.6915    8.9115  -12.7610 H   0  0  0  0  0
   -9.5854   10.4409  -13.8345 H   0  0  0  0  0
  -10.6782    6.8161  -14.2011 H   0  0  0  0  0
   -9.1327    7.7057  -14.3244 H   0  0  0  0  0
  -10.2414    8.7890  -16.1844 H   0  0  0  0  0
  1  2  1  0  0  0
  1  3  1  0  0  0
  1  5  1  0  0  0
  1  6  1  0  0  0
  2  7  1  0  0  0
  3  4  1  0  0  0
  3  8  1  0  0  0
  3  9  1  0  0  0
  4 10  1  0  0  0
M  END
$$$$
