@<TRIPOS>MOLECULE
EDO_1_H_403
 10 9 0 0 0
SMALL
NO_CHARGES

@<TRIPOS>ATOM
      1 C1          2.5770   40.5070    2.0270 C.3    403  EDO403      0.0000
      2 O1          3.1970   41.5450    2.7940 O.3    403  EDO403      0.0000
      3 C2          3.4050   40.2110    0.7870 C.3    403  EDO403      0.0000
      4 O2          4.6600   39.6330    1.1690 O.3    403  EDO403      0.0000
      5 H           1.5592   40.8417    1.7378 H      403  EDO403      0.0000
      6 H           2.4558   39.5990    2.6539 H      403  EDO403      0.0000
      7 H           4.1150   41.3131    2.8725 H      403  EDO403      0.0000
      8 H           3.5939   41.1415    0.2127 H      403  EDO403      0.0000
      9 H           2.8618   39.5178    0.1101 H      403  EDO403      0.0000
     10 H           4.5540   38.6927    1.2288 H      403  EDO403      0.0000
@<TRIPOS>BOND
     1     1     2    1
     2     1     3    1
     3     1     5    1
     4     1     6    1
     5     2     7    1
     6     3     4    1
     7     3     8    1
     8     3     9    1
     9     4    10    1

