@<TRIPOS>MOLECULE
EDO_1_L_302
 10 9 0 0 0
SMALL
NO_CHARGES

@<TRIPOS>ATOM
      1 C1        -21.2280   -3.6560  -22.3420 C.3    302  EDO302      0.0000
      2 O1        -22.3390   -4.3590  -21.7780 O.3    302  EDO302      0.0000
      3 C2        -21.4010   -3.5340  -23.8520 C.3    302  EDO302      0.0000
      4 O2        -21.0550   -4.7750  -24.4740 O.3    302  EDO302      0.0000
      5 H         -20.2735   -4.1581  -22.0789 H      302  EDO302      0.0000
      6 H         -21.1956   -2.6437  -21.8877 H      302  EDO302      0.0000
      7 H         -22.1960   -5.2848  -21.9272 H      302  EDO302      0.0000
      8 H         -20.7191   -2.7505  -24.2436 H      302  EDO302      0.0000
      9 H         -22.4337   -3.2289  -24.1223 H      302  EDO302      0.0000
     10 H         -21.8527   -5.2714  -24.6022 H      302  EDO302      0.0000
@<TRIPOS>BOND
     1     1     2    1
     2     1     3    1
     3     1     5    1
     4     1     6    1
     5     2     7    1
     6     3     4    1
     7     3     8    1
     8     3     9    1
     9     4    10    1

