@<TRIPOS>MOLECULE
EDO_1_L_308
 10 9 0 0 0
SMALL
NO_CHARGES

@<TRIPOS>ATOM
      1 C1         10.3980   33.4180  -20.1230 C.3    308  EDO308      0.0000
      2 O1          9.6680   33.7100  -21.3190 O.3    308  EDO308      0.0000
      3 C2         10.8280   34.7190  -19.4630 C.3    308  EDO308      0.0000
      4 O2         11.5650   34.4270  -18.2680 O.3    308  EDO308      0.0000
      5 H          11.2864   32.7999  -20.3724 H      308  EDO308      0.0000
      6 H           9.7588   32.8278  -19.4327 H      308  EDO308      0.0000
      7 H           9.4103   32.8882  -21.7152 H      308  EDO308      0.0000
      8 H           9.9396   35.3354  -19.2094 H      308  EDO308      0.0000
      9 H          11.4637   35.3112  -20.1549 H      308  EDO308      0.0000
     10 H          11.8234   35.2493  -17.8732 H      308  EDO308      0.0000
@<TRIPOS>BOND
     1     1     2    1
     2     1     3    1
     3     1     5    1
     4     1     6    1
     5     2     7    1
     6     3     4    1
     7     3     8    1
     8     3     9    1
     9     4    10    1

