@<TRIPOS>MOLECULE
EDO_1_E_903
 10 9 0 0 0
SMALL
NO_CHARGES

@<TRIPOS>ATOM
      1 C1        -11.5670   53.6240    4.4680 C.3    903  EDO903      0.0000
      2 O1        -11.1170   53.8120    5.8170 O.3    903  EDO903      0.0000
      3 C2        -11.6450   52.1380    4.1670 C.3    903  EDO903      0.0000
      4 O2        -10.3760   51.5310    4.4530 O.3    903  EDO903      0.0000
      5 H         -10.8655   54.1311    3.7729 H      903  EDO903      0.0000
      6 H         -12.5595   54.1039    4.3448 H      903  EDO903      0.0000
      7 H         -10.4283   53.1729    5.9631 H      903  EDO903      0.0000
      8 H         -11.9307   51.9603    3.1087 H      903  EDO903      0.0000
      9 H         -12.4202   51.6574    4.7994 H      903  EDO903      0.0000
     10 H          -9.8778   51.4809    3.6479 H      903  EDO903      0.0000
@<TRIPOS>BOND
     1     1     2    1
     2     1     3    1
     3     1     5    1
     4     1     6    1
     5     2     7    1
     6     3     4    1
     7     3     8    1
     8     3     9    1
     9     4    10    1

