EDO_1_E_901
  -ISIS-            3D

 10  9  0  0  0  0  0  0  0  0  1 V2000
    1.8100   60.6250   26.3980 C   0  0  0  0  0
    1.5640   62.0280   26.5330 O   0  0  0  0  0
    1.1020   60.1020   25.1530 C   0  0  0  0  0
    0.4300   58.8830   25.4780 O   0  0  0  0  0
    1.4351   60.1071   27.3063 H   0  0  0  0  0
    2.9022   60.4356   26.3374 H   0  0  0  0  0
    1.9576   62.3205   27.3444 H   0  0  0  0  0
    1.8265   59.9298   24.3297 H   0  0  0  0  0
    0.3546   60.8389   24.7898 H   0  0  0  0  0
   -0.0580   58.6018   24.7154 H   0  0  0  0  0
  1  2  1  0  0  0
  1  3  1  0  0  0
  1  5  1  0  0  0
  1  6  1  0  0  0
  2  7  1  0  0  0
  3  4  1  0  0  0
  3  8  1  0  0  0
  3  9  1  0  0  0
  4 10  1  0  0  0
M  END
$$$$
