EDO_1_E_902
  -ISIS-            3D

 10  9  0  0  0  0  0  0  0  0  1 V2000
    4.4060   62.3420   24.4170 C   0  0  0  0  0
    4.7980   63.4780   25.1960 O   0  0  0  0  0
    4.6180   62.6300   22.9360 C   0  0  0  0  0
    6.0190   62.6180   22.6430 O   0  0  0  0  0
    3.3328   62.1265   24.6069 H   0  0  0  0  0
    4.9835   61.4471   24.7311 H   0  0  0  0  0
    4.6484   63.2763   26.1100 H   0  0  0  0  0
    4.1753   63.6059   22.6465 H   0  0  0  0  0
    4.1239   61.8500   22.3202 H   0  0  0  0  0
    6.4205   63.2598   23.2164 H   0  0  0  0  0
  1  2  1  0  0  0
  1  3  1  0  0  0
  1  5  1  0  0  0
  1  6  1  0  0  0
  2  7  1  0  0  0
  3  4  1  0  0  0
  3  8  1  0  0  0
  3  9  1  0  0  0
  4 10  1  0  0  0
M  END
$$$$
