@<TRIPOS>MOLECULE
EDO_1_E_906
 10 9 0 0 0
SMALL
NO_CHARGES

@<TRIPOS>ATOM
      1 C1         -0.2210   49.0120    3.7740 C.3    906  EDO906      0.0000
      2 O1         -0.6390   50.0760    2.9070 O.3    906  EDO906      0.0000
      3 C2          0.6950   49.5610    4.8520 C.3    906  EDO906      0.0000
      4 O2          0.9630   48.5700    5.8480 O.3    906  EDO906      0.0000
      5 H           0.3062   48.2423    3.1734 H      906  EDO906      0.0000
      6 H          -1.1117   48.5237    4.2234 H      906  EDO906      0.0000
      7 H          -1.4106   50.4813    3.2803 H      906  EDO906      0.0000
      8 H           0.2235   50.4399    5.3412 H      906  EDO906      0.0000
      9 H           1.6502   49.9065    4.4026 H      906  EDO906      0.0000
     10 H           1.5831   48.9308    6.4680 H      906  EDO906      0.0000
@<TRIPOS>BOND
     1     1     2    1
     2     1     3    1
     3     1     5    1
     4     1     6    1
     5     2     7    1
     6     3     4    1
     7     3     8    1
     8     3     9    1
     9     4    10    1

