@<TRIPOS>MOLECULE
EDO_1_H_406
 10 9 0 0 0
SMALL
NO_CHARGES

@<TRIPOS>ATOM
      1 C1         24.1000   32.4400    3.1490 C.3    406  EDO406      0.0000
      2 O1         23.6270   31.8670    4.3760 O.3    406  EDO406      0.0000
      3 C2         23.5370   33.8410    2.9940 C.3    406  EDO406      0.0000
      4 O2         24.4070   34.6270    2.1670 O.3    406  EDO406      0.0000
      5 H          23.8074   31.8019    2.2889 H      406  EDO406      0.0000
      6 H          25.2100   32.4698    3.1792 H      406  EDO406      0.0000
      7 H          23.9449   30.9754    4.4288 H      406  EDO406      0.0000
      8 H          23.4296   34.3353    3.9831 H      406  EDO406      0.0000
      9 H          22.5266   33.8080    2.5373 H      406  EDO406      0.0000
     10 H          25.0769   35.0106    2.7177 H      406  EDO406      0.0000
@<TRIPOS>BOND
     1     1     2    1
     2     1     3    1
     3     1     5    1
     4     1     6    1
     5     2     7    1
     6     3     4    1
     7     3     8    1
     8     3     9    1
     9     4    10    1

