EDO_1_L_308
  -ISIS-            3D

 10  9  0  0  0  0  0  0  0  0  1 V2000
   10.3980   33.4180  -20.1230 C   0  0  0  0  0
    9.6680   33.7100  -21.3190 O   0  0  0  0  0
   10.8280   34.7190  -19.4630 C   0  0  0  0  0
   11.5650   34.4270  -18.2680 O   0  0  0  0  0
   11.2864   32.7999  -20.3724 H   0  0  0  0  0
    9.7588   32.8278  -19.4327 H   0  0  0  0  0
    9.4103   32.8882  -21.7152 H   0  0  0  0  0
    9.9396   35.3354  -19.2094 H   0  0  0  0  0
   11.4637   35.3112  -20.1549 H   0  0  0  0  0
   11.8234   35.2493  -17.8732 H   0  0  0  0  0
  1  2  1  0  0  0
  1  3  1  0  0  0
  1  5  1  0  0  0
  1  6  1  0  0  0
  2  7  1  0  0  0
  3  4  1  0  0  0
  3  8  1  0  0  0
  3  9  1  0  0  0
  4 10  1  0  0  0
M  END
$$$$
