EDO_1_H_402
  -ISIS-            3D

 10  9  0  0  0  0  0  0  0  0  1 V2000
    5.0170   45.2760    3.1690 C   0  0  0  0  0
    3.9990   46.1000    2.5980 O   0  0  0  0  0
    5.0940   43.9900    2.3650 C   0  0  0  0  0
    5.0440   44.3060    0.9690 O   0  0  0  0  0
    4.7879   45.0631    4.2341 H   0  0  0  0  0
    5.9890   45.8123    3.1311 H   0  0  0  0  0
    3.9594   46.9072    3.0932 H   0  0  0  0  0
    4.2425   43.3226    2.6151 H   0  0  0  0  0
    6.0273   43.4336    2.5874 H   0  0  0  0  0
    4.3628   44.9604    0.8628 H   0  0  0  0  0
  1  2  1  0  0  0
  1  3  1  0  0  0
  1  5  1  0  0  0
  1  6  1  0  0  0
  2  7  1  0  0  0
  3  4  1  0  0  0
  3  8  1  0  0  0
  3  9  1  0  0  0
  4 10  1  0  0  0
M  END
$$$$
