@<TRIPOS>MOLECULE
EDO_1_H_405
 10 9 0 0 0
SMALL
NO_CHARGES

@<TRIPOS>ATOM
      1 C1          3.3390   40.7700   15.8070 C.3    405  EDO405      0.0000
      2 O1          4.1430   39.6920   15.3090 O.3    405  EDO405      0.0000
      3 C2          2.0590   40.8700   14.9960 C.3    405  EDO405      0.0000
      4 O2          2.3420   41.4850   13.7330 O.3    405  EDO405      0.0000
      5 H           3.9094   41.7219   15.7711 H      405  EDO405      0.0000
      6 H           3.0930   40.5719   16.8721 H      405  EDO405      0.0000
      7 H           4.9306   39.6431   15.8342 H      405  EDO405      0.0000
      8 H           1.3172   41.4990   15.5307 H      405  EDO405      0.0000
      9 H           1.5936   39.8740   14.8432 H      405  EDO405      0.0000
     10 H           2.9841   40.9353   13.3007 H      405  EDO405      0.0000
@<TRIPOS>BOND
     1     1     2    1
     2     1     3    1
     3     1     5    1
     4     1     6    1
     5     2     7    1
     6     3     4    1
     7     3     8    1
     8     3     9    1
     9     4    10    1

