EDO_1_E_903
  -ISIS-            3D

 10  9  0  0  0  0  0  0  0  0  1 V2000
  -11.5670   53.6240    4.4680 C   0  0  0  0  0
  -11.1170   53.8120    5.8170 O   0  0  0  0  0
  -11.6450   52.1380    4.1670 C   0  0  0  0  0
  -10.3760   51.5310    4.4530 O   0  0  0  0  0
  -10.8655   54.1311    3.7729 H   0  0  0  0  0
  -12.5595   54.1039    4.3448 H   0  0  0  0  0
  -10.4283   53.1729    5.9631 H   0  0  0  0  0
  -11.9307   51.9603    3.1087 H   0  0  0  0  0
  -12.4202   51.6574    4.7994 H   0  0  0  0  0
   -9.8778   51.4809    3.6479 H   0  0  0  0  0
  1  2  1  0  0  0
  1  3  1  0  0  0
  1  5  1  0  0  0
  1  6  1  0  0  0
  2  7  1  0  0  0
  3  4  1  0  0  0
  3  8  1  0  0  0
  3  9  1  0  0  0
  4 10  1  0  0  0
M  END
$$$$
