A1R_1_A_401
  -ISIS-            3D

 58 61  0  0  0  0  0  0  0  0  1 V2000
   -7.0320  -10.3290   -0.3320 N   0  0  0  0  0
   -6.5730   -9.2530    0.3600 C   0  0  0  0  0
   -6.6670   -8.9970    1.6840 N   0  0  0  0  0
   -7.3250  -10.0000    2.3000 C   0  0  0  0  0
   -7.8650  -11.1410    1.7300 C   0  0  0  0  0
   -7.7090  -11.2850    0.3550 C   0  0  0  0  0
   -8.2410  -12.4030   -0.3140 N   0  0  0  0  0
   -8.4600  -11.9230    2.6820 N   0  0  0  0  0
   -8.2990  -11.2700    3.8150 C   0  0  0  0  0
   -7.6170  -10.1000    3.6350 N   0  0  0  0  0
   -7.2300   -9.1330    4.6650 C   0  0  0  0  0
   -7.9830   -9.2860    5.9720 C   0  0  0  0  0
   -9.2460   -8.6410    5.9330 O   0  0  0  0  0
   -7.0030   -8.6680    6.9480 C   0  0  0  0  0
   -7.0830   -7.2480    6.8220 O   0  0  0  0  0
   -5.8520   -9.4000    4.9910 O   0  0  0  0  0
   -5.6470   -9.1540    6.4110 C   0  0  0  0  0
   -5.0360  -10.4040    7.0710 C   0  0  0  0  0
   -5.9830  -11.2540    7.7150 O   0  0  0  0  0
   -5.8560  -12.8660    7.5530 P   0  0  0  0  0
   -5.8190  -13.3490    6.1430 O   0  0  0  0  0
   -6.9510  -13.5110    8.5510 O   0  0  0  0  0
   -4.4900  -13.1580    8.3200 O   0  0  0  0  0
   -4.0570  -13.2040    9.8640 P   0  0  0  0  0
   -4.9660  -12.1230   10.6410 O   0  0  0  0  0
   -2.5700  -13.0200    9.9730 O   0  0  0  0  0
   -4.5510  -14.6620   10.3510 O   0  0  0  0  0
   -3.7690  -15.7600    9.9120 C   0  0  0  0  0
   -5.7210  -16.9930    8.9920 N   0  0  0  0  0
   -5.7740  -18.3240    8.3720 C   0  0  0  0  0
   -4.3490  -20.2190    8.2280 O   0  0  0  0  0
   -4.3400  -18.8070    8.4310 C   0  0  0  0  0
   -4.1450  -19.2010   10.8870 O   0  0  0  0  0
   -3.8690  -18.3190    9.8090 C   0  0  0  0  0
   -4.6320  -17.0080    9.9920 C   0  0  0  0  0
   -6.0412   -8.4928   -0.2374 H   0  0  0  0  0
   -8.0813  -12.4304   -1.3287 H   0  0  0  0  0
   -8.7369  -13.0847    0.2755 H   0  0  0  0  0
   -8.6451  -11.6153    4.7957 H   0  0  0  0  0
   -7.3252   -8.0960    4.2782 H   0  0  0  0  0
   -8.1101  -10.3491    6.2585 H   0  0  0  0  0
   -9.8156   -9.1205    5.3462 H   0  0  0  0  0
   -7.1858   -8.9721    7.9979 H   0  0  0  0  0
   -8.0059   -7.0208    6.8377 H   0  0  0  0  0
   -4.9070   -8.3300    6.5109 H   0  0  0  0  0
   -4.3138  -10.0722    7.8475 H   0  0  0  0  0
   -4.4334  -10.9563    6.3214 H   0  0  0  0  0
   -2.8795  -15.8606   10.5702 H   0  0  0  0  0
   -3.4104  -15.6222    8.8694 H   0  0  0  0  0
   -6.6131  -16.7658    9.4255 H   0  0  0  0  0
   -6.1606  -18.2619    7.3326 H   0  0  0  0  0
   -6.4433  -18.9943    8.9563 H   0  0  0  0  0
   -3.5011  -20.4798    7.8939 H   0  0  0  0  0
   -3.7515  -18.3032    7.6317 H   0  0  0  0  0
   -4.3103  -20.0559   10.5060 H   0  0  0  0  0
   -2.7733  -18.1378    9.7786 H   0  0  0  0  0
   -5.0911  -17.0275   11.0087 H   0  0  0  0  0
   -4.8038  -13.1694    5.6772 H   0  0  0  0  0
  1  2  2  0  0  0
  1  6  1  0  0  0
  2  3  1  0  0  0
  2 36  1  0  0  0
  3  4  2  0  0  0
  4  5  1  0  0  0
  4 10  1  0  0  0
  5  6  2  0  0  0
  5  8  1  0  0  0
  6  7  1  0  0  0
  7 37  1  0  0  0
  7 38  1  0  0  0
  8  9  2  0  0  0
  9 10  1  0  0  0
  9 39  1  0  0  0
 10 11  1  0  0  0
 11 12  1  0  0  0
 11 16  1  0  0  0
 11 40  1  0  0  0
 12 13  1  0  0  0
 12 14  1  0  0  0
 12 41  1  0  0  0
 13 42  1  0  0  0
 14 15  1  0  0  0
 14 17  1  0  0  0
 14 43  1  0  0  0
 15 44  1  0  0  0
 16 17  1  0  0  0
 17 18  1  0  0  0
 17 45  1  0  0  0
 18 19  1  0  0  0
 18 46  1  0  0  0
 18 47  1  0  0  0
 19 20  1  0  0  0
 20 21  1  0  0  0
 20 22  2  0  0  0
 20 23  1  0  0  0
 23 24  1  0  0  0
 24 25  2  0  0  0
 24 26  2  0  0  0
 24 27  1  0  0  0
 27 28  1  0  0  0
 28 35  1  0  0  0
 28 48  1  0  0  0
 28 49  1  0  0  0
 29 30  1  0  0  0
 29 35  1  0  0  0
 29 50  1  0  0  0
 30 32  1  0  0  0
 30 51  1  0  0  0
 30 52  1  0  0  0
 31 32  1  0  0  0
 31 53  1  0  0  0
 32 34  1  0  0  0
 32 54  1  0  0  0
 33 34  1  0  0  0
 33 55  1  0  0  0
 34 35  1  0  0  0
 34 56  1  0  0  0
 35 57  1  0  0  0
 21 58  1  0  0  0
M  END
$$$$
