@<TRIPOS>MOLECULE
A1R_1_A_406
 58 61 0 0 0
SMALL
NO_CHARGES

@<TRIPOS>ATOM
      1 N1        -13.2400  -13.5350   -7.1920 N.ar   406  A1R406      0.0000
      2 C2        -12.9760  -14.2660   -6.0780 C.ar   406  A1R406      0.0000
      3 N3        -12.5950  -13.8430   -4.8580 N.ar   406  A1R406      0.0000
      4 C4        -12.4910  -12.5060   -4.8600 C.ar   406  A1R406      0.0000
      5 C5        -12.7370  -11.6330   -5.9120 C.ar   406  A1R406      0.0000
      6 C6        -13.1160  -12.1920   -7.1190 C.ar   406  A1R406      0.0000
      7 N6        -13.3620  -11.3900   -8.2470 N.3    406  A1R406      0.0000
      8 N7        -12.5330  -10.3330   -5.5390 N.ar   406  A1R406      0.0000
      9 C8        -12.1970  -10.4180   -4.2710 C.ar   406  A1R406      0.0000
     10 N9        -12.1490  -11.7100   -3.8040 N.ar   406  A1R406      0.0000
     11 C1'       -11.7920  -12.0860   -2.4300 C.3    406  A1R406      0.0000
     12 C2'       -12.3810  -11.0760   -1.4800 C.3    406  A1R406      0.0000
     13 O2'       -11.5850   -9.9320   -1.5680 O.3    406  A1R406      0.0000
     14 C3'       -12.2840  -11.7670   -0.1420 C.3    406  A1R406      0.0000
     15 O3'       -11.0130  -11.4920    0.4450 O.3    406  A1R406      0.0000
     16 O4'       -12.3270  -13.3380   -1.9660 O.3    406  A1R406      0.0000
     17 C4'       -12.3780  -13.2430   -0.5150 C.3    406  A1R406      0.0000
     18 C5'       -13.6650  -13.8460    0.0400 C.3    406  A1R406      0.0000
     19 O5'       -13.7390  -13.4730    1.4080 O.3    406  A1R406      0.0000
     20 PA        -12.8280  -14.3030    2.4650 P.3    406  A1R406      0.0000
     21 O1A       -11.8930  -15.3090    1.8590 O.co2  406  A1R406      0.0000
     22 O2A       -13.9420  -14.9480    3.4430 O.co2  406  A1R406      0.0000
     23 O3A       -12.0930  -13.1850    3.3950 O.3    406  A1R406      0.0000
     24 PB        -12.4440  -12.6800    4.9000 P.3    406  A1R406      0.0000
     25 O1B       -12.6390  -14.0560    5.7340 O.co2  406  A1R406      0.0000
     26 O2B       -13.6500  -11.7920    4.8950 O.co2  406  A1R406      0.0000
     27 O5N       -11.1150  -12.0300    5.5760 O.3    406  A1R406      0.0000
     28 C5N       -10.5300  -12.6110    6.7410 C.3    406  A1R406      0.0000
     29 N4N       -10.8850  -10.2840    7.6920 N.3    406  A1R406      0.0000
     30 C1N       -11.3790   -9.7120    8.9560 C.3    406  A1R406      0.0000
     31 O2N       -11.8310  -10.8860   11.0020 O.3    406  A1R406      0.0000
     32 C2N       -12.1900  -10.8090    9.6270 C.3    406  A1R406      0.0000
     33 O3N       -11.3420  -13.0020    9.9430 O.3    406  A1R406      0.0000
     34 C3N       -11.7610  -12.0970    8.9440 C.3    406  A1R406      0.0000
     35 C4N       -10.6370  -11.7060    7.9780 C.3    406  A1R406      0.0000
     36 H         -13.0915  -15.3580   -6.1882 H      406  A1R406      0.0000
     37 H         -13.2439  -10.3772   -8.1107 H      406  A1R406      0.0000
     38 H         -13.6359  -11.8946   -9.0992 H      406  A1R406      0.0000
     39 H         -11.9489   -9.5520   -3.6516 H      406  A1R406      0.0000
     40 H         -10.6833  -12.1138   -2.3472 H      406  A1R406      0.0000
     41 H         -13.4421  -10.8643   -1.7350 H      406  A1R406      0.0000
     42 H         -12.0774   -9.1937   -1.2320 H      406  A1R406      0.0000
     43 H         -13.0888  -11.4117    0.5316 H      406  A1R406      0.0000
     44 H         -10.7134  -10.6432    0.1441 H      406  A1R406      0.0000
     45 H         -11.5000  -13.7850   -0.1063 H      406  A1R406      0.0000
     46 H         -13.7102  -14.9454   -0.0963 H      406  A1R406      0.0000
     47 H         -14.5428  -13.4204   -0.4889 H      406  A1R406      0.0000
     48 H          -9.4497  -12.7435    6.5132 H      406  A1R406      0.0000
     49 H         -10.8909  -13.6317    6.9674 H      406  A1R406      0.0000
     50 H         -10.0236   -9.8237    7.4063 H      406  A1R406      0.0000
     51 H         -11.9905   -8.8056    8.7599 H      406  A1R406      0.0000
     52 H         -10.5187   -9.4076    9.5934 H      406  A1R406      0.0000
     53 H         -12.1854  -10.1280   11.4485 H      406  A1R406      0.0000
     54 H         -13.2822  -10.6439    9.5071 H      406  A1R406      0.0000
     55 H         -11.8921  -12.8971   10.7081 H      406  A1R406      0.0000
     56 H         -12.6194  -12.5210    8.3800 H      406  A1R406      0.0000
     57 H          -9.6772  -11.7812    8.5428 H      406  A1R406      0.0000
     58 H         -12.4408  -16.2702    1.6227 H      406  A1R406      0.0000
@<TRIPOS>BOND
     1     1     2   ar
     2     1     6   ar
     3     2     3   ar
     4     2    36    1
     5     3     4   ar
     6     4     5   ar
     7     4    10   ar
     8     5     6   ar
     9     5     8   ar
    10     6     7    1
    11     7    37    1
    12     7    38    1
    13     8     9   ar
    14     9    10   ar
    15     9    39    1
    16    10    11    1
    17    11    12    1
    18    11    16    1
    19    11    40    1
    20    12    13    1
    21    12    14    1
    22    12    41    1
    23    13    42    1
    24    14    15    1
    25    14    17    1
    26    14    43    1
    27    15    44    1
    28    16    17    1
    29    17    18    1
    30    17    45    1
    31    18    19    1
    32    18    46    1
    33    18    47    1
    34    19    20    1
    35    20    21    1
    36    20    22    2
    37    20    23    1
    38    23    24    1
    39    24    25    2
    40    24    26    2
    41    24    27    1
    42    27    28    1
    43    28    35    1
    44    28    48    1
    45    28    49    1
    46    29    30    1
    47    29    35    1
    48    29    50    1
    49    30    32    1
    50    30    51    1
    51    30    52    1
    52    31    32    1
    53    31    53    1
    54    32    34    1
    55    32    54    1
    56    33    34    1
    57    33    55    1
    58    34    35    1
    59    34    56    1
    60    35    57    1
    61    21    58    1

