A1R_1_A_406
  -ISIS-            3D

 58 61  0  0  0  0  0  0  0  0  1 V2000
  -13.2400  -13.5350   -7.1920 N   0  0  0  0  0
  -12.9760  -14.2660   -6.0780 C   0  0  0  0  0
  -12.5950  -13.8430   -4.8580 N   0  0  0  0  0
  -12.4910  -12.5060   -4.8600 C   0  0  0  0  0
  -12.7370  -11.6330   -5.9120 C   0  0  0  0  0
  -13.1160  -12.1920   -7.1190 C   0  0  0  0  0
  -13.3620  -11.3900   -8.2470 N   0  0  0  0  0
  -12.5330  -10.3330   -5.5390 N   0  0  0  0  0
  -12.1970  -10.4180   -4.2710 C   0  0  0  0  0
  -12.1490  -11.7100   -3.8040 N   0  0  0  0  0
  -11.7920  -12.0860   -2.4300 C   0  0  0  0  0
  -12.3810  -11.0760   -1.4800 C   0  0  0  0  0
  -11.5850   -9.9320   -1.5680 O   0  0  0  0  0
  -12.2840  -11.7670   -0.1420 C   0  0  0  0  0
  -11.0130  -11.4920    0.4450 O   0  0  0  0  0
  -12.3270  -13.3380   -1.9660 O   0  0  0  0  0
  -12.3780  -13.2430   -0.5150 C   0  0  0  0  0
  -13.6650  -13.8460    0.0400 C   0  0  0  0  0
  -13.7390  -13.4730    1.4080 O   0  0  0  0  0
  -12.8280  -14.3030    2.4650 P   0  0  0  0  0
  -11.8930  -15.3090    1.8590 O   0  0  0  0  0
  -13.9420  -14.9480    3.4430 O   0  0  0  0  0
  -12.0930  -13.1850    3.3950 O   0  0  0  0  0
  -12.4440  -12.6800    4.9000 P   0  0  0  0  0
  -12.6390  -14.0560    5.7340 O   0  0  0  0  0
  -13.6500  -11.7920    4.8950 O   0  0  0  0  0
  -11.1150  -12.0300    5.5760 O   0  0  0  0  0
  -10.5300  -12.6110    6.7410 C   0  0  0  0  0
  -10.8850  -10.2840    7.6920 N   0  0  0  0  0
  -11.3790   -9.7120    8.9560 C   0  0  0  0  0
  -11.8310  -10.8860   11.0020 O   0  0  0  0  0
  -12.1900  -10.8090    9.6270 C   0  0  0  0  0
  -11.3420  -13.0020    9.9430 O   0  0  0  0  0
  -11.7610  -12.0970    8.9440 C   0  0  0  0  0
  -10.6370  -11.7060    7.9780 C   0  0  0  0  0
  -13.0915  -15.3580   -6.1882 H   0  0  0  0  0
  -13.2439  -10.3772   -8.1107 H   0  0  0  0  0
  -13.6359  -11.8946   -9.0992 H   0  0  0  0  0
  -11.9489   -9.5520   -3.6516 H   0  0  0  0  0
  -10.6833  -12.1138   -2.3472 H   0  0  0  0  0
  -13.4421  -10.8643   -1.7350 H   0  0  0  0  0
  -12.0774   -9.1937   -1.2320 H   0  0  0  0  0
  -13.0888  -11.4117    0.5316 H   0  0  0  0  0
  -10.7134  -10.6432    0.1441 H   0  0  0  0  0
  -11.5000  -13.7850   -0.1063 H   0  0  0  0  0
  -13.7102  -14.9454   -0.0963 H   0  0  0  0  0
  -14.5428  -13.4204   -0.4889 H   0  0  0  0  0
   -9.4497  -12.7435    6.5132 H   0  0  0  0  0
  -10.8909  -13.6317    6.9674 H   0  0  0  0  0
  -10.0236   -9.8237    7.4063 H   0  0  0  0  0
  -11.9905   -8.8056    8.7599 H   0  0  0  0  0
  -10.5187   -9.4076    9.5934 H   0  0  0  0  0
  -12.1854  -10.1280   11.4485 H   0  0  0  0  0
  -13.2822  -10.6439    9.5071 H   0  0  0  0  0
  -11.8921  -12.8971   10.7081 H   0  0  0  0  0
  -12.6194  -12.5210    8.3800 H   0  0  0  0  0
   -9.6772  -11.7812    8.5428 H   0  0  0  0  0
  -12.4408  -16.2702    1.6227 H   0  0  0  0  0
  1  2  2  0  0  0
  1  6  1  0  0  0
  2  3  1  0  0  0
  2 36  1  0  0  0
  3  4  2  0  0  0
  4  5  1  0  0  0
  4 10  1  0  0  0
  5  6  2  0  0  0
  5  8  1  0  0  0
  6  7  1  0  0  0
  7 37  1  0  0  0
  7 38  1  0  0  0
  8  9  2  0  0  0
  9 10  1  0  0  0
  9 39  1  0  0  0
 10 11  1  0  0  0
 11 12  1  0  0  0
 11 16  1  0  0  0
 11 40  1  0  0  0
 12 13  1  0  0  0
 12 14  1  0  0  0
 12 41  1  0  0  0
 13 42  1  0  0  0
 14 15  1  0  0  0
 14 17  1  0  0  0
 14 43  1  0  0  0
 15 44  1  0  0  0
 16 17  1  0  0  0
 17 18  1  0  0  0
 17 45  1  0  0  0
 18 19  1  0  0  0
 18 46  1  0  0  0
 18 47  1  0  0  0
 19 20  1  0  0  0
 20 21  1  0  0  0
 20 22  2  0  0  0
 20 23  1  0  0  0
 23 24  1  0  0  0
 24 25  2  0  0  0
 24 26  2  0  0  0
 24 27  1  0  0  0
 27 28  1  0  0  0
 28 35  1  0  0  0
 28 48  1  0  0  0
 28 49  1  0  0  0
 29 30  1  0  0  0
 29 35  1  0  0  0
 29 50  1  0  0  0
 30 32  1  0  0  0
 30 51  1  0  0  0
 30 52  1  0  0  0
 31 32  1  0  0  0
 31 53  1  0  0  0
 32 34  1  0  0  0
 32 54  1  0  0  0
 33 34  1  0  0  0
 33 55  1  0  0  0
 34 35  1  0  0  0
 34 56  1  0  0  0
 35 57  1  0  0  0
 21 58  1  0  0  0
M  END
$$$$
