@<TRIPOS>MOLECULE
A1R_1_A_401
 58 61 0 0 0
SMALL
NO_CHARGES

@<TRIPOS>ATOM
      1 N1         -7.0320  -10.3290   -0.3320 N.ar   401  A1R401      0.0000
      2 C2         -6.5730   -9.2530    0.3600 C.ar   401  A1R401      0.0000
      3 N3         -6.6670   -8.9970    1.6840 N.ar   401  A1R401      0.0000
      4 C4         -7.3250  -10.0000    2.3000 C.ar   401  A1R401      0.0000
      5 C5         -7.8650  -11.1410    1.7300 C.ar   401  A1R401      0.0000
      6 C6         -7.7090  -11.2850    0.3550 C.ar   401  A1R401      0.0000
      7 N6         -8.2410  -12.4030   -0.3140 N.3    401  A1R401      0.0000
      8 N7         -8.4600  -11.9230    2.6820 N.ar   401  A1R401      0.0000
      9 C8         -8.2990  -11.2700    3.8150 C.ar   401  A1R401      0.0000
     10 N9         -7.6170  -10.1000    3.6350 N.ar   401  A1R401      0.0000
     11 C1'        -7.2300   -9.1330    4.6650 C.3    401  A1R401      0.0000
     12 C2'        -7.9830   -9.2860    5.9720 C.3    401  A1R401      0.0000
     13 O2'        -9.2460   -8.6410    5.9330 O.3    401  A1R401      0.0000
     14 C3'        -7.0030   -8.6680    6.9480 C.3    401  A1R401      0.0000
     15 O3'        -7.0830   -7.2480    6.8220 O.3    401  A1R401      0.0000
     16 O4'        -5.8520   -9.4000    4.9910 O.3    401  A1R401      0.0000
     17 C4'        -5.6470   -9.1540    6.4110 C.3    401  A1R401      0.0000
     18 C5'        -5.0360  -10.4040    7.0710 C.3    401  A1R401      0.0000
     19 O5'        -5.9830  -11.2540    7.7150 O.3    401  A1R401      0.0000
     20 PA         -5.8560  -12.8660    7.5530 P.3    401  A1R401      0.0000
     21 O1A        -5.8190  -13.3490    6.1430 O.co2  401  A1R401      0.0000
     22 O2A        -6.9510  -13.5110    8.5510 O.co2  401  A1R401      0.0000
     23 O3A        -4.4900  -13.1580    8.3200 O.3    401  A1R401      0.0000
     24 PB         -4.0570  -13.2040    9.8640 P.3    401  A1R401      0.0000
     25 O1B        -4.9660  -12.1230   10.6410 O.co2  401  A1R401      0.0000
     26 O2B        -2.5700  -13.0200    9.9730 O.co2  401  A1R401      0.0000
     27 O5N        -4.5510  -14.6620   10.3510 O.3    401  A1R401      0.0000
     28 C5N        -3.7690  -15.7600    9.9120 C.3    401  A1R401      0.0000
     29 N4N        -5.7210  -16.9930    8.9920 N.3    401  A1R401      0.0000
     30 C1N        -5.7740  -18.3240    8.3720 C.3    401  A1R401      0.0000
     31 O2N        -4.3490  -20.2190    8.2280 O.3    401  A1R401      0.0000
     32 C2N        -4.3400  -18.8070    8.4310 C.3    401  A1R401      0.0000
     33 O3N        -4.1450  -19.2010   10.8870 O.3    401  A1R401      0.0000
     34 C3N        -3.8690  -18.3190    9.8090 C.3    401  A1R401      0.0000
     35 C4N        -4.6320  -17.0080    9.9920 C.3    401  A1R401      0.0000
     36 H          -6.0412   -8.4928   -0.2374 H      401  A1R401      0.0000
     37 H          -8.0813  -12.4304   -1.3287 H      401  A1R401      0.0000
     38 H          -8.7369  -13.0847    0.2755 H      401  A1R401      0.0000
     39 H          -8.6451  -11.6153    4.7957 H      401  A1R401      0.0000
     40 H          -7.3252   -8.0960    4.2782 H      401  A1R401      0.0000
     41 H          -8.1101  -10.3491    6.2585 H      401  A1R401      0.0000
     42 H          -9.8156   -9.1205    5.3462 H      401  A1R401      0.0000
     43 H          -7.1858   -8.9721    7.9979 H      401  A1R401      0.0000
     44 H          -8.0059   -7.0208    6.8377 H      401  A1R401      0.0000
     45 H          -4.9070   -8.3300    6.5109 H      401  A1R401      0.0000
     46 H          -4.3138  -10.0722    7.8475 H      401  A1R401      0.0000
     47 H          -4.4334  -10.9563    6.3214 H      401  A1R401      0.0000
     48 H          -2.8795  -15.8606   10.5702 H      401  A1R401      0.0000
     49 H          -3.4104  -15.6222    8.8694 H      401  A1R401      0.0000
     50 H          -6.6131  -16.7658    9.4255 H      401  A1R401      0.0000
     51 H          -6.1606  -18.2619    7.3326 H      401  A1R401      0.0000
     52 H          -6.4433  -18.9943    8.9563 H      401  A1R401      0.0000
     53 H          -3.5011  -20.4798    7.8939 H      401  A1R401      0.0000
     54 H          -3.7515  -18.3032    7.6317 H      401  A1R401      0.0000
     55 H          -4.3103  -20.0559   10.5060 H      401  A1R401      0.0000
     56 H          -2.7733  -18.1378    9.7786 H      401  A1R401      0.0000
     57 H          -5.0911  -17.0275   11.0087 H      401  A1R401      0.0000
     58 H          -4.8038  -13.1694    5.6772 H      401  A1R401      0.0000
@<TRIPOS>BOND
     1     1     2   ar
     2     1     6   ar
     3     2     3   ar
     4     2    36    1
     5     3     4   ar
     6     4     5   ar
     7     4    10   ar
     8     5     6   ar
     9     5     8   ar
    10     6     7    1
    11     7    37    1
    12     7    38    1
    13     8     9   ar
    14     9    10   ar
    15     9    39    1
    16    10    11    1
    17    11    12    1
    18    11    16    1
    19    11    40    1
    20    12    13    1
    21    12    14    1
    22    12    41    1
    23    13    42    1
    24    14    15    1
    25    14    17    1
    26    14    43    1
    27    15    44    1
    28    16    17    1
    29    17    18    1
    30    17    45    1
    31    18    19    1
    32    18    46    1
    33    18    47    1
    34    19    20    1
    35    20    21    1
    36    20    22    2
    37    20    23    1
    38    23    24    1
    39    24    25    2
    40    24    26    2
    41    24    27    1
    42    27    28    1
    43    28    35    1
    44    28    48    1
    45    28    49    1
    46    29    30    1
    47    29    35    1
    48    29    50    1
    49    30    32    1
    50    30    51    1
    51    30    52    1
    52    31    32    1
    53    31    53    1
    54    32    34    1
    55    32    54    1
    56    33    34    1
    57    33    55    1
    58    34    35    1
    59    34    56    1
    60    35    57    1
    61    21    58    1

