EDO_1_A_403
  -ISIS-            3D

 10  9  0  0  0  0  0  0  0  0  1 V2000
   -6.6670    0.8060   -5.6470 C   0  0  0  0  0
   -7.2280    1.2320   -4.4370 O   0  0  0  0  0
   -7.7100    0.4760   -6.7090 C   0  0  0  0  0
   -7.0590    0.3450   -7.9460 O   0  0  0  0  0
   -6.0403   -0.0884   -5.4482 H   0  0  0  0  0
   -5.9771    1.5935   -6.0198 H   0  0  0  0  0
   -7.5626    2.1119   -4.5494 H   0  0  0  0  0
   -8.4519    1.2974   -6.7884 H   0  0  0  0  0
   -8.2676   -0.4502   -6.4571 H   0  0  0  0  0
   -6.6544   -0.5118   -7.9892 H   0  0  0  0  0
  1  2  1  0  0  0
  1  3  1  0  0  0
  1  5  1  0  0  0
  1  6  1  0  0  0
  2  7  1  0  0  0
  3  4  1  0  0  0
  3  8  1  0  0  0
  3  9  1  0  0  0
  4 10  1  0  0  0
M  END
$$$$
