EDO_1_A_405
  -ISIS-            3D

 10  9  0  0  0  0  0  0  0  0  1 V2000
   13.7830   -2.9560   11.9050 C   0  0  0  0  0
   14.5020   -3.9410   12.6020 O   0  0  0  0  0
   14.0190   -3.0540   10.3910 C   0  0  0  0  0
   13.2360   -2.0760    9.7470 O   0  0  0  0  0
   14.0643   -1.9487   12.2793 H   0  0  0  0  0
   12.7032   -3.0896   12.1249 H   0  0  0  0  0
   15.4087   -3.6704   12.6619 H   0  0  0  0  0
   13.7372   -4.0634   10.0232 H   0  0  0  0  0
   15.0914   -2.8916   10.1533 H   0  0  0  0  0
   13.3346   -2.1798    8.8095 H   0  0  0  0  0
  1  2  1  0  0  0
  1  3  1  0  0  0
  1  5  1  0  0  0
  1  6  1  0  0  0
  2  7  1  0  0  0
  3  4  1  0  0  0
  3  8  1  0  0  0
  3  9  1  0  0  0
  4 10  1  0  0  0
M  END
$$$$
