MYC_1_A_401
  -ISIS-            3D

 33 35  0  0  0  0  0  0  0  0  1 V2000
  -14.2650   14.0960   72.3130 C   0  0  0  0  0
  -14.8950   15.1330   71.6670 C   0  0  0  0  0
  -14.1830   15.9610   70.7670 C   0  0  0  0  0
  -12.8320   15.6770   70.5650 C   0  0  0  0  0
  -12.1700   14.6410   71.1970 C   0  0  0  0  0
  -12.9040   13.8540   72.0740 C   0  0  0  0  0
  -14.7910   17.0780   70.0550 C   0  0  0  0  0
  -13.9290   17.8170   69.1740 C   0  0  0  0  0
  -12.6150   17.4790   69.0110 C   0  0  0  0  0
  -11.6620   18.1840   68.1420 C   0  0  0  0  0
  -10.4230   18.5950   68.6500 C   0  0  0  0  0
   -9.5230   19.2640   67.8450 C   0  0  0  0  0
   -9.8460   19.5390   66.5180 C   0  0  0  0  0
  -11.0780   19.1340   66.0050 C   0  0  0  0  0
  -11.9850   18.4670   66.8070 C   0  0  0  0  0
  -12.0770   16.4330   69.7160 O   0  0  0  0  0
  -16.0010   17.3990   70.1820 O   0  0  0  0  0
  -11.3480   19.4240   64.6960 O   0  0  0  0  0
   -8.9540   20.2000   65.7250 O   0  0  0  0  0
   -8.3040   19.6760   68.3110 O   0  0  0  0  0
  -14.4780   18.8600   68.5040 O   0  0  0  0  0
  -12.2970   12.8300   72.7170 O   0  0  0  0  0
  -16.2060   15.3650   71.8970 O   0  0  0  0  0
  -14.8080   13.4455   73.0187 H   0  0  0  0  0
  -11.0999   14.4575   71.0048 H   0  0  0  0  0
  -10.1715   18.3806   69.7025 H   0  0  0  0  0
  -12.9610   18.1496   66.4037 H   0  0  0  0  0
  -12.2081   19.1311   64.4316 H   0  0  0  0  0
   -9.3489   20.2966   64.8661 H   0  0  0  0  0
   -8.1626   19.4638   69.2232 H   0  0  0  0  0
  -15.3853   18.9671   68.7646 H   0  0  0  0  0
  -11.3809   12.7265   72.5033 H   0  0  0  0  0
  -16.6113   14.7701   72.5115 H   0  0  0  0  0
  1  2  2  0  0  0
  1  6  1  0  0  0
  1 24  1  0  0  0
  2  3  1  0  0  0
  2 23  1  0  0  0
  3  4  2  0  0  0
  3  7  1  0  0  0
  4  5  1  0  0  0
  4 16  1  0  0  0
  5  6  2  0  0  0
  5 25  1  0  0  0
  6 22  1  0  0  0
  7  8  1  0  0  0
  7 17  2  0  0  0
  8  9  2  0  0  0
  8 21  1  0  0  0
  9 10  1  0  0  0
  9 16  1  0  0  0
 10 11  2  0  0  0
 10 15  1  0  0  0
 11 12  1  0  0  0
 11 26  1  0  0  0
 12 13  2  0  0  0
 12 20  1  0  0  0
 13 14  1  0  0  0
 13 19  1  0  0  0
 14 15  2  0  0  0
 14 18  1  0  0  0
 15 27  1  0  0  0
 18 28  1  0  0  0
 19 29  1  0  0  0
 20 30  1  0  0  0
 21 31  1  0  0  0
 22 32  1  0  0  0
 23 33  1  0  0  0
M  END
$$$$
