@<TRIPOS>MOLECULE
DMS_2_A_402
 10 9 0 0 0
SMALL
NO_CHARGES

@<TRIPOS>ATOM
      1 S          -6.3690   -0.7770    7.0090 S.o    402  DMS402      0.0000
      2 O          -7.7890   -0.4990    7.3800 O.2    402  DMS402      0.0000
      3 C1         -6.0680   -2.4990    6.5230 C.3    402  DMS402      0.0000
      4 C2         -5.6330   -0.9820    8.6820 C.3    402  DMS402      0.0000
      5 H          -4.9769   -2.6969    6.4980 H      402  DMS402      0.0000
      6 H          -6.4888   -2.6664    5.5105 H      402  DMS402      0.0000
      7 H          -6.5593   -3.1904    7.2379 H      402  DMS402      0.0000
      8 H          -4.5649   -1.2657    8.5866 H      402  DMS402      0.0000
      9 H          -6.1790   -1.7642    9.2485 H      402  DMS402      0.0000
     10 H          -5.7023   -0.0194    9.2291 H      402  DMS402      0.0000
@<TRIPOS>BOND
     1     1     2    2
     2     1     3    1
     3     1     4    1
     4     3     5    1
     5     3     6    1
     6     3     7    1
     7     4     8    1
     8     4     9    1
     9     4    10    1

