@<TRIPOS>MOLECULE
DMS_2_A_401
 10 9 0 0 0
SMALL
NO_CHARGES

@<TRIPOS>ATOM
      1 S          -7.0050  -28.3660  -21.8440 S.o    401  DMS401      0.0000
      2 O          -7.8200  -27.2750  -22.4410 O.2    401  DMS401      0.0000
      3 C1         -5.8340  -29.0210  -23.0610 C.3    401  DMS401      0.0000
      4 C2         -5.8400  -27.6650  -20.6510 C.3    401  DMS401      0.0000
      5 H          -5.1910  -29.7881  -22.5830 H      401  DMS401      0.0000
      6 H          -5.2026  -28.1992  -23.4567 H      401  DMS401      0.0000
      7 H          -6.3969  -29.4857  -23.8962 H      401  DMS401      0.0000
      8 H          -5.1940  -28.4699  -20.2448 H      401  DMS401      0.0000
      9 H          -6.4053  -27.1970  -19.8193 H      401  DMS401      0.0000
     10 H          -5.2110  -26.8963  -21.1449 H      401  DMS401      0.0000
@<TRIPOS>BOND
     1     1     2    2
     2     1     3    1
     3     1     4    1
     4     3     5    1
     5     3     6    1
     6     3     7    1
     7     4     8    1
     8     4     9    1
     9     4    10    1

