@<TRIPOS>MOLECULE
DMS_2_A_407
 10 9 0 0 0
SMALL
NO_CHARGES

@<TRIPOS>ATOM
      1 S          -0.6090   -8.6370  -24.4940 S.o    407  DMS407      0.0000
      2 O          -0.0560   -7.4380  -23.7480 O.2    407  DMS407      0.0000
      3 C1         -1.2240   -8.5030  -26.2220 C.3    407  DMS407      0.0000
      4 C2          0.3840  -10.1470  -24.1870 C.3    407  DMS407      0.0000
      5 H          -1.8163   -9.4073  -26.4695 H      407  DMS407      0.0000
      6 H          -0.3595   -8.4206  -26.9120 H      407  DMS407      0.0000
      7 H          -1.8631   -7.6012  -26.3128 H      407  DMS407      0.0000
      8 H          -0.2062  -11.0382  -24.4829 H      407  DMS407      0.0000
      9 H           0.6355  -10.2087  -23.1085 H      407  DMS407      0.0000
     10 H           1.3160  -10.1004  -24.7864 H      407  DMS407      0.0000
@<TRIPOS>BOND
     1     1     2    2
     2     1     3    1
     3     1     4    1
     4     3     5    1
     5     3     6    1
     6     3     7    1
     7     4     8    1
     8     4     9    1
     9     4    10    1

