DMS_2_A_404
  -ISIS-            3D

 10  9  0  0  0  0  0  0  0  0  1 V2000
   -5.6020    0.2350  -18.1750 S   0  0  0  0  0
   -6.5320    0.9490  -17.2290 O   0  0  0  0  0
   -4.6850    1.5620  -19.0010 C   0  0  0  0  0
   -6.4010   -0.3740  -19.7070 C   0  0  0  0  0
   -4.0041    1.1301  -19.7627 H   0  0  0  0  0
   -4.0811    2.1095  -18.2485 H   0  0  0  0  0
   -5.3885    2.2692  -19.4864 H   0  0  0  0  0
   -5.6276   -0.7446  -20.4105 H   0  0  0  0  0
   -6.9835    0.4420  -20.1818 H   0  0  0  0  0
   -7.0859   -1.2072  -19.4482 H   0  0  0  0  0
  1  2  2  0  0  0
  1  3  1  0  0  0
  1  4  1  0  0  0
  3  5  1  0  0  0
  3  6  1  0  0  0
  3  7  1  0  0  0
  4  8  1  0  0  0
  4  9  1  0  0  0
  4 10  1  0  0  0
M  END
$$$$
