@<TRIPOS>MOLECULE
DMS_1_A_406
 10 9 0 0 0
SMALL
NO_CHARGES

@<TRIPOS>ATOM
      1 S          26.8220   -3.3620   25.1770 S.o    406  DMS406      0.0000
      2 O          26.5900   -4.6670   24.4340 O.2    406  DMS406      0.0000
      3 C1         27.8570   -2.2720   24.1800 C.3    406  DMS406      0.0000
      4 C2         25.2940   -2.3880   25.3750 C.3    406  DMS406      0.0000
      5 H          28.0270   -1.3213   24.7253 H      406  DMS406      0.0000
      6 H          27.3560   -2.0612   23.2131 H      406  DMS406      0.0000
      7 H          28.8327   -2.7640   23.9895 H      406  DMS406      0.0000
      8 H          25.5235   -1.4475   25.9163 H      406  DMS406      0.0000
      9 H          24.5574   -2.9779   25.9578 H      406  DMS406      0.0000
     10 H          24.8714   -2.1512   24.3771 H      406  DMS406      0.0000
@<TRIPOS>BOND
     1     1     2    2
     2     1     3    1
     3     1     4    1
     4     3     5    1
     5     3     6    1
     6     3     7    1
     7     4     8    1
     8     4     9    1
     9     4    10    1

