@<TRIPOS>MOLECULE
DFA_1_A_201
 27 28 0 0 0
SMALL
NO_CHARGES

@<TRIPOS>ATOM
      1 C8        -44.2430  -29.9940    3.4230 C.2    201  DFA201      0.0000
      2 O11       -43.4210  -29.0680    3.5450 O.co2  201  DFA201     -0.5000
      3 C5        -47.2710  -33.0390    1.7400 C.ar   201  DFA201      0.0000
      4 C4        -46.9370  -31.8850    2.4350 C.ar   201  DFA201      0.0000
      5 C3        -45.9820  -31.0050    1.9540 C.ar   201  DFA201      0.0000
      6 C2        -45.3270  -31.3150    0.7740 C.ar   201  DFA201      0.0000
      7 C1        -45.6470  -32.4730    0.0750 C.ar   201  DFA201      0.0000
      8 C6        -46.6110  -33.3420    0.5650 C.ar   201  DFA201      0.0000
      9 C10       -46.6720  -29.2640    3.7100 C.ar   201  DFA201      0.0000
     10 C16       -46.4860  -29.3670    5.0730 C.ar   201  DFA201      0.0000
     11 C15       -47.4860  -28.9400    5.9250 C.ar   201  DFA201      0.0000
     12 C14       -48.6600  -28.3920    5.4300 C.ar   201  DFA201      0.0000
     13 C13       -48.8420  -28.2740    4.0730 C.ar   201  DFA201      0.0000
     14 C12       -47.8500  -28.7210    3.2230 C.ar   201  DFA201      0.0000
     15 C11       -45.5890  -29.7340    2.7240 C.3    201  DFA201      0.0000
     16 O1'       -43.9480  -31.1310    3.9030 O.co2  201  DFA201     -0.5000
     17 H         -48.0485  -33.7170    2.1313 H      201  DFA201      0.0000
     18 H         -47.4566  -31.6788    3.3858 H      201  DFA201      0.0000
     19 H         -44.5458  -30.6456    0.3741 H      201  DFA201      0.0000
     20 H         -45.1262  -32.7071   -0.8693 H      201  DFA201      0.0000
     21 H         -46.8553  -34.2662    0.0141 H      201  DFA201      0.0000
     22 H         -45.5664  -29.7882    5.5105 H      201  DFA201      0.0000
     23 H         -47.3475  -29.0315    7.0162 H      201  DFA201      0.0000
     24 H         -49.4454  -28.0501    6.1256 H      201  DFA201      0.0000
     25 H         -49.7699  -27.8351    3.6687 H      201  DFA201      0.0000
     26 H         -48.0050  -28.6370    2.1333 H      201  DFA201      0.0000
     27 H         -45.4382  -28.9137    1.9820 H      201  DFA201      0.0000
@<TRIPOS>BOND
     1     1     2   ar
     2     1    15    1
     3     1    16   ar
     4     3     4   ar
     5     3     8   ar
     6     3    17    1
     7     4     5   ar
     8     4    18    1
     9     5     6   ar
    10     5    15    1
    11     6     7   ar
    12     6    19    1
    13     7     8   ar
    14     7    20    1
    15     8    21    1
    16     9    10   ar
    17     9    14   ar
    18     9    15    1
    19    10    11   ar
    20    10    22    1
    21    11    12   ar
    22    11    23    1
    23    12    13   ar
    24    12    24    1
    25    13    14   ar
    26    13    25    1
    27    14    26    1
    28    15    27    1

