@<TRIPOS>MOLECULE
DMS_2_A_401
 10 9 0 0 0
SMALL
NO_CHARGES

@<TRIPOS>ATOM
      1 S          -7.0330  -28.2440  -21.5860 S.o    401  DMS401      0.0000
      2 O          -7.8440  -27.2630  -22.3530 O.2    401  DMS401      0.0000
      3 C1         -5.7780  -28.8240  -22.7080 C.3    401  DMS401      0.0000
      4 C2         -6.0130  -27.3040  -20.5090 C.3    401  DMS401      0.0000
      5 H          -5.0502  -29.4584  -22.1618 H      401  DMS401      0.0000
      6 H          -5.2473  -27.9667  -23.1702 H      401  DMS401      0.0000
      7 H          -6.2523  -29.4295  -23.5072 H      401  DMS401      0.0000
      8 H          -5.2805  -27.9690  -20.0070 H      401  DMS401      0.0000
      9 H          -6.6426  -26.8191  -19.7352 H      401  DMS401      0.0000
     10 H          -5.4700  -26.5195  -21.0745 H      401  DMS401      0.0000
@<TRIPOS>BOND
     1     1     2    2
     2     1     3    1
     3     1     4    1
     4     3     5    1
     5     3     6    1
     6     3     7    1
     7     4     8    1
     8     4     9    1
     9     4    10    1

