DMS_1_A_401
  -ISIS-            3D

 10  9  0  0  0  0  0  0  0  0  1 V2000
    7.0330  -28.2440   21.5860 S   0  0  0  0  0
    7.8440  -27.2630   22.3530 O   0  0  0  0  0
    5.7780  -28.8240   22.7080 C   0  0  0  0  0
    6.0130  -27.3040   20.5090 C   0  0  0  0  0
    5.0502  -29.4584   22.1618 H   0  0  0  0  0
    5.2473  -27.9667   23.1702 H   0  0  0  0  0
    6.2523  -29.4295   23.5072 H   0  0  0  0  0
    5.2805  -27.9690   20.0070 H   0  0  0  0  0
    6.6426  -26.8191   19.7352 H   0  0  0  0  0
    5.4700  -26.5195   21.0745 H   0  0  0  0  0
  1  2  2  0  0  0
  1  3  1  0  0  0
  1  4  1  0  0  0
  3  5  1  0  0  0
  3  6  1  0  0  0
  3  7  1  0  0  0
  4  8  1  0  0  0
  4  9  1  0  0  0
  4 10  1  0  0  0
M  END
$$$$
