DMS_1_A_402
  -ISIS-            3D

 10  9  0  0  0  0  0  0  0  0  1 V2000
    6.0800   -1.0000   -6.2460 S   0  0  0  0  0
    6.8270   -0.4390   -7.4180 O   0  0  0  0  0
    7.1820   -0.9490   -4.8600 C   0  0  0  0  0
    6.0360   -2.7550   -6.4470 C   0  0  0  0  0
    6.7235   -1.4686   -3.9938 H   0  0  0  0  0
    7.3723    0.1079   -4.5825 H   0  0  0  0  0
    8.1466   -1.4341   -5.1140 H   0  0  0  0  0
    5.6058   -3.2285   -5.5407 H   0  0  0  0  0
    7.0573   -3.1511   -6.6214 H   0  0  0  0  0
    5.3982   -3.0080   -7.3185 H   0  0  0  0  0
  1  2  2  0  0  0
  1  3  1  0  0  0
  1  4  1  0  0  0
  3  5  1  0  0  0
  3  6  1  0  0  0
  3  7  1  0  0  0
  4  8  1  0  0  0
  4  9  1  0  0  0
  4 10  1  0  0  0
M  END
$$$$
