@<TRIPOS>MOLECULE
DMS_1_A_404
 10 9 0 0 0
SMALL
NO_CHARGES

@<TRIPOS>ATOM
      1 S           8.2730   -4.6860   26.7600 S.o    404  DMS404      0.0000
      2 O           8.3090   -5.3030   28.1230 O.2    404  DMS404      0.0000
      3 C1          9.3400   -5.6810   25.7480 C.3    404  DMS404      0.0000
      4 C2          6.7240   -5.1820   26.0510 C.3    404  DMS404      0.0000
      5 H           9.2462   -5.3730   24.6865 H      404  DMS404      0.0000
      6 H           9.0766   -6.7541   25.8461 H      404  DMS404      0.0000
      7 H          10.3913   -5.5362   26.0710 H      404  DMS404      0.0000
      8 H           6.6874   -4.8860   24.9826 H      404  DMS404      0.0000
      9 H           5.8958   -4.6781   26.5902 H      404  DMS404      0.0000
     10 H           6.5937   -6.2804   26.1347 H      404  DMS404      0.0000
@<TRIPOS>BOND
     1     1     2    2
     2     1     3    1
     3     1     4    1
     4     3     5    1
     5     3     6    1
     6     3     7    1
     7     4     8    1
     8     4     9    1
     9     4    10    1

