@<TRIPOS>MOLECULE
DMS_2_A_401
 10 9 0 0 0
SMALL
NO_CHARGES

@<TRIPOS>ATOM
      1 S          -6.9570  -28.1110  -21.4700 S.o    401  DMS401      0.0000
      2 O          -7.5940  -27.0590  -22.2200 O.2    401  DMS401      0.0000
      3 C1         -5.6470  -28.7220  -22.4900 C.3    401  DMS401      0.0000
      4 C2         -5.9490  -27.3400  -20.2300 C.3    401  DMS401      0.0000
      5 H          -5.0336  -29.4497  -21.9204 H      401  DMS401      0.0000
      6 H          -5.0027  -27.8875  -22.8358 H      401  DMS401      0.0000
      7 H          -6.0780  -29.2344  -23.3744 H      401  DMS401      0.0000
      8 H          -5.3322  -28.1054  -19.7163 H      401  DMS401      0.0000
      9 H          -6.6018  -26.8460  -19.4815 H      401  DMS401      0.0000
     10 H          -5.2858  -26.5779  -20.6887 H      401  DMS401      0.0000
@<TRIPOS>BOND
     1     1     2    2
     2     1     3    1
     3     1     4    1
     4     3     5    1
     5     3     6    1
     6     3     7    1
     7     4     8    1
     8     4     9    1
     9     4    10    1

