@<TRIPOS>MOLECULE
DMS_1_A_402
 10 9 0 0 0
SMALL
NO_CHARGES

@<TRIPOS>ATOM
      1 S           6.0880   -1.0480   -6.2230 S.o    402  DMS402      0.0000
      2 O           7.0340   -0.7530   -7.3390 O.2    402  DMS402      0.0000
      3 C1          7.0750   -1.0030   -4.7300 C.3    402  DMS402      0.0000
      4 C2          5.8320   -2.7870   -6.2130 C.3    402  DMS402      0.0000
      5 H           6.4718   -1.3545   -3.8680 H      402  DMS402      0.0000
      6 H           7.3969    0.0411   -4.5380 H      402  DMS402      0.0000
      7 H           7.9748   -1.6426   -4.8397 H      402  DMS402      0.0000
      8 H           5.2629   -3.0821   -5.3078 H      402  DMS402      0.0000
      9 H           6.8016   -3.3256   -6.2318 H      402  DMS402      0.0000
     10 H           5.2459   -3.0758   -7.1094 H      402  DMS402      0.0000
@<TRIPOS>BOND
     1     1     2    2
     2     1     3    1
     3     1     4    1
     4     3     5    1
     5     3     6    1
     6     3     7    1
     7     4     8    1
     8     4     9    1
     9     4    10    1

