@<TRIPOS>MOLECULE
DMS_2_A_401
 10 9 0 0 0
SMALL
NO_CHARGES

@<TRIPOS>ATOM
      1 S          -6.9800  -27.9030  -21.6280 S.o    401  DMS401      0.0000
      2 O          -7.7160  -26.8930  -22.4420 O.2    401  DMS401      0.0000
      3 C1         -5.6510  -28.5280  -22.6460 C.3    401  DMS401      0.0000
      4 C2         -5.9920  -26.9890  -20.4980 C.3    401  DMS401      0.0000
      5 H          -4.9873  -29.1785  -22.0404 H      401  DMS401      0.0000
      6 H          -5.0621  -27.6890  -23.0702 H      401  DMS401      0.0000
      7 H          -6.0780  -29.1260  -23.4769 H      401  DMS401      0.0000
      8 H          -5.3152  -27.6739  -19.9475 H      401  DMS401      0.0000
      9 H          -6.6493  -26.4754  -19.7668 H      401  DMS401      0.0000
     10 H          -5.3890  -26.2281  -21.0348 H      401  DMS401      0.0000
@<TRIPOS>BOND
     1     1     2    2
     2     1     3    1
     3     1     4    1
     4     3     5    1
     5     3     6    1
     6     3     7    1
     7     4     8    1
     8     4     9    1
     9     4    10    1

