DMS_1_A_403
  -ISIS-            3D

 10  9  0  0  0  0  0  0  0  0  1 V2000
    2.5110  -18.6920    8.0650 S   0  0  0  0  0
    3.7430  -18.8500    8.9430 O   0  0  0  0  0
    1.2100  -18.2110    9.1810 C   0  0  0  0  0
    1.9520  -20.3260    7.7600 C   0  0  0  0  0
    0.2346  -18.2314    8.6533 H   0  0  0  0  0
    1.4001  -17.1790    9.5406 H   0  0  0  0  0
    1.1735  -18.8956   10.0532 H   0  0  0  0  0
    0.9602  -20.3004    7.2640 H   0  0  0  0  0
    1.8746  -20.8964    8.7084 H   0  0  0  0  0
    2.6704  -20.8411    7.0899 H   0  0  0  0  0
  1  2  2  0  0  0
  1  3  1  0  0  0
  1  4  1  0  0  0
  3  5  1  0  0  0
  3  6  1  0  0  0
  3  7  1  0  0  0
  4  8  1  0  0  0
  4  9  1  0  0  0
  4 10  1  0  0  0
M  END
$$$$
