@<TRIPOS>MOLECULE
DMS_1_A_1302
 11 10 0 0 0
SMALL
NO_CHARGES

@<TRIPOS>ATOM
      1 S          -0.1490  -24.5860   36.2290 S.o   1302  DMS1302      0.0000
      2 O          -1.2630  -23.1920   36.2980 O.2   1302  DMS1302      0.0000
      3 C1         -0.6880  -25.9230   37.3310 C.3   1302  DMS1302      0.0000
      4 C2          1.3760  -24.1880   37.1330 C.3   1302  DMS1302      0.0000
      5 H          -0.7996  -22.2254   35.5554 H     1302  DMS1302      0.0000
      6 H           0.0660  -26.7350   37.3015 H     1302  DMS1302      0.0000
      7 H          -1.6644  -26.2960   36.9621 H     1302  DMS1302      0.0000
      8 H          -0.7964  -25.5220   38.3586 H     1302  DMS1302      0.0000
      9 H           2.0365  -25.0782   37.1270 H     1302  DMS1302      0.0000
     10 H           1.1148  -23.8972   38.1702 H     1302  DMS1302      0.0000
     11 H           1.8705  -23.3434   36.6127 H     1302  DMS1302      0.0000
@<TRIPOS>BOND
     1     1     2    1
     2     1     3    1
     3     1     4    1
     4     2     5    1
     5     3     6    1
     6     3     7    1
     7     3     8    1
     8     4     9    1
     9     4    10    1
    10     4    11    1

