@<TRIPOS>MOLECULE
DMS_1_B_1303
 11 10 0 0 0
SMALL
NO_CHARGES

@<TRIPOS>ATOM
      1 S         -46.8090   -4.6770    7.9590 S.o   1303  DMS1303      0.0000
      2 O         -45.1220   -5.2140    8.3920 O.2   1303  DMS1303      0.0000
      3 C1        -47.9280   -6.1250    7.9390 C.3   1303  DMS1303      0.0000
      4 C2        -46.9990   -4.0710    6.2440 C.3   1303  DMS1303      0.0000
      5 H         -44.3146   -4.1910    8.3493 H     1303  DMS1303      0.0000
      6 H         -48.9501   -5.7754    7.6907 H     1303  DMS1303      0.0000
      7 H         -47.9109   -6.5847    8.9474 H     1303  DMS1303      0.0000
      8 H         -47.5611   -6.8435    7.1788 H     1303  DMS1303      0.0000
      9 H         -48.0609   -3.7961    6.0845 H     1303  DMS1303      0.0000
     10 H         -46.6912   -4.8778    5.5490 H     1303  DMS1303      0.0000
     11 H         -46.3467   -3.1834    6.1207 H     1303  DMS1303      0.0000
@<TRIPOS>BOND
     1     1     2    1
     2     1     3    1
     3     1     4    1
     4     2     5    1
     5     3     6    1
     6     3     7    1
     7     3     8    1
     8     4     9    1
     9     4    10    1
    10     4    11    1

