@<TRIPOS>MOLECULE
DMS_2_A_401
 10 9 0 0 0
SMALL
NO_CHARGES

@<TRIPOS>ATOM
      1 S         -17.9730  -31.6170   -5.7260 S.o    401  DMS401      0.0000
      2 O         -18.0280  -32.8050   -6.6310 O.2    401  DMS401      0.0000
      3 C1        -16.4780  -30.6540   -6.0860 C.3    401  DMS401      0.0000
      4 C2        -19.2600  -30.4330   -6.2100 C.3    401  DMS401      0.0000
      5 H         -16.4682  -29.7374   -5.4615 H      401  DMS401      0.0000
      6 H         -16.4607  -30.3738   -7.1592 H      401  DMS401      0.0000
      7 H         -15.5834  -31.2662   -5.8511 H      401  DMS401      0.0000
      8 H         -19.1803  -29.5219   -5.5826 H      401  DMS401      0.0000
      9 H         -20.2571  -30.8949   -6.0591 H      401  DMS401      0.0000
     10 H         -19.1382  -30.1613   -7.2786 H      401  DMS401      0.0000
@<TRIPOS>BOND
     1     1     2    2
     2     1     3    1
     3     1     4    1
     4     3     5    1
     5     3     6    1
     6     3     7    1
     7     4     8    1
     8     4     9    1
     9     4    10    1

