@<TRIPOS>MOLECULE
DMS_1_A_401
 10 9 0 0 0
SMALL
NO_CHARGES

@<TRIPOS>ATOM
      1 S          31.1140  -31.6170  -46.0880 S.o    401  DMS401      0.0000
      2 O          31.1690  -32.8050  -45.1840 O.2    401  DMS401      0.0000
      3 C1         29.6190  -30.6540  -45.7290 C.3    401  DMS401      0.0000
      4 C2         32.4010  -30.4330  -45.6050 C.3    401  DMS401      0.0000
      5 H          29.6093  -29.7378  -46.3540 H      401  DMS401      0.0000
      6 H          29.6014  -30.3733  -44.6560 H      401  DMS401      0.0000
      7 H          28.7245  -31.2664  -45.9638 H      401  DMS401      0.0000
      8 H          32.3213  -29.5222  -46.2329 H      401  DMS401      0.0000
      9 H          33.3981  -30.8950  -45.7558 H      401  DMS401      0.0000
     10 H          32.2794  -30.1607  -44.5365 H      401  DMS401      0.0000
@<TRIPOS>BOND
     1     1     2    2
     2     1     3    1
     3     1     4    1
     4     3     5    1
     5     3     6    1
     6     3     7    1
     7     4     8    1
     8     4     9    1
     9     4    10    1

