@<TRIPOS>MOLECULE
ADE_1_A_7115
 15 16 0 0 0
SMALL
NO_CHARGES

@<TRIPOS>ATOM
      1 N9         82.7410   46.6120   17.7180 N.ar  7115  ADE7115      0.0000
      2 C8         81.4550   47.0310   17.5680 C.ar  7115  ADE7115      0.0000
      3 N7         81.1670   48.1210   18.2410 N.ar  7115  ADE7115      0.0000
      4 C5         82.3610   48.4370   18.8790 C.ar  7115  ADE7115      0.0000
      5 C6         82.7310   49.4830   19.7480 C.ar  7115  ADE7115      0.0000
      6 N6         81.8990   50.4440   20.1410 N.pl3 7115  ADE7115      0.0000
      7 N1         84.0070   49.5000   20.2040 N.ar  7115  ADE7115      0.0000
      8 C2         84.8440   48.5310   19.8070 C.ar  7115  ADE7115      0.0000
      9 N3         84.6130   47.5010   18.9970 N.ar  7115  ADE7115      0.0000
     10 C4         83.3380   47.5070   18.5590 C.ar  7115  ADE7115      0.0000
     11 H          83.1863   45.7925   17.2921 H     7115  ADE7115      0.0000
     12 H          80.6640   46.5662   16.9640 H     7115  ADE7115      0.0000
     13 H          85.8694   48.5972   20.2099 H     7115  ADE7115      0.0000
     14 H          82.3024   51.1430   20.7771 H     7115  ADE7115      0.0000
     15 H          80.9361   50.4106   19.7828 H     7115  ADE7115      0.0000
@<TRIPOS>BOND
     1     1     2   ar
     2     1    10   ar
     3     1    11    1
     4     2     3   ar
     5     2    12    1
     6     3     4   ar
     7     4     5   ar
     8     4    10   ar
     9     5     6    1
    10     5     7   ar
    11     6    14    1
    12     6    15    1
    13     7     8   ar
    14     8     9   ar
    15     8    13    1
    16     9    10   ar

