GTA_1_A_7113
  -ISIS-            3D

 79 84  0  0  0  0  0  0  0  0  1 V2000
   82.9770   30.9170   45.3640 N   0  0  0  0  0
   85.2340   32.1380   41.5740 O   0  0  0  0  0
   84.8880   31.2140   42.3020 C   0  0  0  0  0
   85.1590   29.8550   42.1640 C   0  0  0  0  0
   85.8680   29.1300   41.2050 N   0  0  0  0  0
   86.5150   29.6690   40.0100 C   0  0  0  0  0
   85.8620   27.8480   41.5670 C   0  0  0  0  0
   85.1360   27.6900   42.6540 N   0  0  0  0  0
   84.6970   28.9420   43.0770 C   0  0  0  0  0
   83.9650   29.2050   44.1760 N   0  0  0  0  0
   83.7020   30.4920   44.3220 C   0  0  0  0  0
   84.1370   31.4460   43.4390 N   0  0  0  0  0
   82.9590   23.8640   41.9020 O   0  0  0  0  0
   85.0080   26.4560   43.4550 C   0  0  0  0  0
   83.6400   25.8270   43.2500 C   0  0  0  0  0
   83.9140   24.9010   42.0830 C   0  0  0  0  0
   85.2900   24.3490   42.4760 C   0  0  0  0  0
   86.1290   23.7920   41.3500 C   0  0  0  0  0
   85.9640   25.4930   43.0650 O   0  0  0  0  0
   83.2860   25.1180   44.4210 O   0  0  0  0  0
   86.5500   24.4120   38.8190 P   0  0  0  0  0
   87.9850   24.1150   38.5520 O   0  0  0  0  0
   85.5300   23.3890   38.4600 O   0  0  0  0  0
   86.1910   25.7990   38.0980 O   0  0  0  0  0
   86.3710   24.8310   40.3620 O   0  0  0  0  0
   84.8230   26.5930   37.8690 P   0  0  0  0  0
   85.1540   27.9690   37.3990 O   0  0  0  0  0
   83.9170   26.4090   39.0430 O   0  0  0  0  0
   84.1930   25.7520   36.6640 O   0  0  0  0  0
   82.6940   25.7370   36.1090 P   0  0  0  0  0
   82.3730   27.1060   35.6020 O   0  0  0  0  0
   81.7960   25.1200   37.1320 O   0  0  0  0  0
   82.8400   24.7200   34.8850 O   0  0  0  0  0
   83.5930   25.1040   33.7140 C   0  0  0  0  0
   83.3230   24.0990   32.6240 C   0  0  0  0  0
   83.8100   22.7980   33.0420 O   0  0  0  0  0
   81.8500   23.8520   32.2810 C   0  0  0  0  0
   81.3350   24.8390   31.3960 O   0  0  0  0  0
   81.9380   22.4680   31.6380 C   0  0  0  0  0
   82.4040   22.5300   30.3080 O   0  0  0  0  0
   82.9540   21.7860   32.5530 C   0  0  0  0  0
   82.3360   21.1010   33.6870 N   0  0  0  0  0
   82.0510   21.6050   34.9370 C   0  0  0  0  0
   81.4810   20.7160   35.7200 N   0  0  0  0  0
   81.3820   19.5700   34.9400 C   0  0  0  0  0
   80.8680   18.2830   35.1960 C   0  0  0  0  0
   80.3300   17.9180   36.3550 N   0  0  0  0  0
   80.9260   17.3760   34.1900 N   0  0  0  0  0
   81.4650   17.7490   33.0200 C   0  0  0  0  0
   81.9800   18.9260   32.6690 N   0  0  0  0  0
   81.9050   19.8010   33.6860 C   0  0  0  0  0
   87.0544   28.8596   39.4711 H   0  0  0  0  0
   87.2434   30.4545   40.3086 H   0  0  0  0  0
   85.7428   30.1085   39.3411 H   0  0  0  0  0
   86.3679   27.0095   41.0802 H   0  0  0  0  0
   82.4671   24.0438   41.1117 H   0  0  0  0  0
   85.1649   26.7187   44.5230 H   0  0  0  0  0
   82.8583   26.5763   43.0093 H   0  0  0  0  0
   84.0049   25.5020   41.1577 H   0  0  0  0  0
   85.1653   23.5680   43.2571 H   0  0  0  0  0
   85.6061   22.9227   40.9011 H   0  0  0  0  0
   87.1032   23.4258   41.7360 H   0  0  0  0  0
   82.6644   24.4489   44.1594 H   0  0  0  0  0
   84.6764   25.1411   33.9531 H   0  0  0  0  0
   83.2858   26.1135   33.3696 H   0  0  0  0  0
   83.8710   24.4023   31.7056 H   0  0  0  0  0
   81.2360   23.8033   33.2050 H   0  0  0  0  0
   80.3934   24.8749   31.4988 H   0  0  0  0  0
   80.9572   21.9493   31.6628 H   0  0  0  0  0
   82.0230   23.3070   29.9151 H   0  0  0  0  0
   83.5473   21.0331   31.9930 H   0  0  0  0  0
   82.2360   22.5987   35.3518 H   0  0  0  0  0
   81.4863   16.9699   32.2387 H   0  0  0  0  0
   82.7725   31.9177   45.4727 H   0  0  0  0  0
   82.6701   30.1718   46.0004 H   0  0  0  0  0
   79.9914   16.9488   36.3979 H   0  0  0  0  0
   80.2971   18.6224   37.1030 H   0  0  0  0  0
   83.8598   32.4048   43.6773 H   0  0  0  0  0
   88.2815   23.1396   39.0423 H   0  0  0  0  0
  1 11  1  0  0  0
  1 74  1  0  0  0
  1 75  1  0  0  0
  2  3  2  0  0  0
  3  4  1  0  0  0
  3 12  1  0  0  0
  4  5  1  0  0  0
  4  9  2  0  0  0
  5  6  1  0  0  0
  5  7  1  0  0  0
  6 52  1  0  0  0
  6 53  1  0  0  0
  6 54  1  0  0  0
  7  8  1  0  0  0
  7 55  1  0  0  0
  8  9  1  0  0  0
  8 14  1  0  0  0
  9 10  1  0  0  0
 10 11  2  0  0  0
 11 12  1  0  0  0
 12 78  1  0  0  0
 13 16  1  0  0  0
 13 56  1  0  0  0
 14 15  1  0  0  0
 14 19  1  0  0  0
 14 57  1  0  0  0
 15 16  1  0  0  0
 15 20  1  0  0  0
 15 58  1  0  0  0
 16 17  1  0  0  0
 16 59  1  0  0  0
 17 18  1  0  0  0
 17 19  1  0  0  0
 17 60  1  0  0  0
 18 25  1  0  0  0
 18 61  1  0  0  0
 18 62  1  0  0  0
 20 63  1  0  0  0
 21 22  1  0  0  0
 21 23  2  0  0  0
 21 24  1  0  0  0
 21 25  1  0  0  0
 24 26  1  0  0  0
 26 27  2  0  0  0
 26 28  2  0  0  0
 26 29  1  0  0  0
 29 30  1  0  0  0
 30 31  2  0  0  0
 30 32  2  0  0  0
 30 33  1  0  0  0
 33 34  1  0  0  0
 34 35  1  0  0  0
 34 64  1  0  0  0
 34 65  1  0  0  0
 35 36  1  0  0  0
 35 37  1  0  0  0
 35 66  1  0  0  0
 36 41  1  0  0  0
 37 38  1  0  0  0
 37 39  1  0  0  0
 37 67  1  0  0  0
 38 68  1  0  0  0
 39 40  1  0  0  0
 39 41  1  0  0  0
 39 69  1  0  0  0
 40 70  1  0  0  0
 41 42  1  0  0  0
 41 71  1  0  0  0
 42 43  1  0  0  0
 42 51  1  0  0  0
 43 44  2  0  0  0
 43 72  1  0  0  0
 44 45  1  0  0  0
 45 46  2  0  0  0
 45 51  1  0  0  0
 46 47  1  0  0  0
 46 48  1  0  0  0
 47 76  1  0  0  0
 47 77  1  0  0  0
 48 49  2  0  0  0
 49 50  1  0  0  0
 49 73  1  0  0  0
 50 51  2  0  0  0
 22 79  1  0  0  0
M  END
$$$$
