MGP_1_A_7114
  -ISIS-            3D

 50 52  0  0  0  0  0  0  0  0  1 V2000
   99.3640   40.6500   19.6960 P   0  0  0  0  0
   99.7640   40.0290   20.9940 O   0  0  0  0  0
   98.0580   40.2510   19.0920 O   0  0  0  0  0
   99.3930   42.2450   19.8550 O   0  0  0  0  0
  100.5330   40.4320   18.6200 O   0  0  0  0  0
   98.7440   43.4330   19.0000 P   0  0  0  0  0
   99.1300   43.2560   17.5680 O   0  0  0  0  0
   99.0310   44.7280   19.6870 O   0  0  0  0  0
   97.1840   43.1020   19.1580 O   0  0  0  0  0
   96.1950   42.9930   20.4330 P   0  0  0  0  0
   97.0410   42.5070   21.5860 O   0  0  0  0  0
   95.1220   42.0060   20.0430 O   0  0  0  0  0
   95.6520   44.3840   20.6550 O   0  0  0  0  0
  101.8640   40.9110   18.9370 C   0  0  0  0  0
  102.8750   39.8340   18.6290 C   0  0  0  0  0
  102.5200   38.6210   19.3450 O   0  0  0  0  0
  102.9600   39.3910   17.1630 C   0  0  0  0  0
  103.7250   40.2980   16.3790 O   0  0  0  0  0
  103.5650   38.0140   17.3260 C   0  0  0  0  0
  104.9360   38.0530   17.6600 O   0  0  0  0  0
  102.7950   37.4980   18.5330 C   0  0  0  0  0
  101.5400   36.8150   18.1660 N   0  0  0  0  0
  100.3160   37.1730   18.5420 C   0  0  0  0  0
   99.4140   36.4740   17.8600 N   0  0  0  0  0
   97.9660   36.6590   17.9420 C   0  0  0  0  0
  100.0930   35.5250   17.1020 C   0  0  0  0  0
   99.6450   34.5020   16.2670 C   0  0  0  0  0
   98.4930   34.2000   15.9820 O   0  0  0  0  0
  100.7080   33.8000   15.7410 N   0  0  0  0  0
  102.0320   34.0520   15.9830 C   0  0  0  0  0
  102.9210   33.2610   15.3760 N   0  0  0  0  0
  102.4430   35.0220   16.7780 N   0  0  0  0  0
  101.4340   35.7320   17.3210 C   0  0  0  0  0
  101.9509   41.2101   20.0023 H   0  0  0  0  0
  102.0735   41.8174   18.3320 H   0  0  0  0  0
  103.8780   40.1687   18.9723 H   0  0  0  0  0
  101.9415   39.3049   16.7291 H   0  0  0  0  0
  104.6355   40.0483   16.4890 H   0  0  0  0  0
  103.4093   37.4038   16.4134 H   0  0  0  0  0
  105.2979   37.1839   17.5490 H   0  0  0  0  0
  103.3938   36.7600   19.1080 H   0  0  0  0  0
   99.9865   37.9643   19.2177 H   0  0  0  0  0
   97.3921   35.9541   17.3057 H   0  0  0  0  0
   97.6833   37.6868   17.6243 H   0  0  0  0  0
   97.6084   36.5220   18.9864 H   0  0  0  0  0
  103.9026   33.4793   15.5840 H   0  0  0  0  0
  102.5966   32.5067   14.7590 H   0  0  0  0  0
  100.5321   33.0131   15.1063 H   0  0  0  0  0
  100.5808   39.2575   20.8463 H   0  0  0  0  0
   95.0856   44.7413   19.7430 H   0  0  0  0  0
  1  2  1  0  0  0
  1  3  2  0  0  0
  1  4  1  0  0  0
  1  5  1  0  0  0
  4  6  1  0  0  0
  5 14  1  0  0  0
  6  7  2  0  0  0
  6  8  2  0  0  0
  6  9  1  0  0  0
  9 10  1  0  0  0
 10 11  2  0  0  0
 10 12  2  0  0  0
 10 13  1  0  0  0
 14 15  1  0  0  0
 14 34  1  0  0  0
 14 35  1  0  0  0
 15 16  1  0  0  0
 15 17  1  0  0  0
 15 36  1  0  0  0
 16 21  1  0  0  0
 17 18  1  0  0  0
 17 19  1  0  0  0
 17 37  1  0  0  0
 18 38  1  0  0  0
 19 20  1  0  0  0
 19 21  1  0  0  0
 19 39  1  0  0  0
 20 40  1  0  0  0
 21 22  1  0  0  0
 21 41  1  0  0  0
 22 23  1  0  0  0
 22 33  1  0  0  0
 23 24  2  0  0  0
 23 42  1  0  0  0
 24 25  1  0  0  0
 24 26  1  0  0  0
 25 43  1  0  0  0
 25 44  1  0  0  0
 25 45  1  0  0  0
 26 27  1  0  0  0
 26 33  2  0  0  0
 27 28  2  0  0  0
 27 29  1  0  0  0
 29 30  1  0  0  0
 29 48  1  0  0  0
 30 31  1  0  0  0
 30 32  2  0  0  0
 31 46  1  0  0  0
 31 47  1  0  0  0
 32 33  1  0  0  0
  2 49  1  0  0  0
 13 50  1  0  0  0
M  END
$$$$
