@<TRIPOS>MOLECULE
MGP_1_A_7114
 50 52 0 0 0
SMALL
NO_CHARGES

@<TRIPOS>ATOM
      1 PA         99.3640   40.6500   19.6960 P.3   7114  MGP7114      0.0000
      2 O1A        99.7640   40.0290   20.9940 O.co2 7114  MGP7114      0.0000
      3 O2A        98.0580   40.2510   19.0920 O.co2 7114  MGP7114      0.0000
      4 O3A        99.3930   42.2450   19.8550 O.3   7114  MGP7114      0.0000
      5 O5'       100.5330   40.4320   18.6200 O.3   7114  MGP7114      0.0000
      6 PB         98.7440   43.4330   19.0000 P.3   7114  MGP7114      0.0000
      7 O1B        99.1300   43.2560   17.5680 O.co2 7114  MGP7114      0.0000
      8 O2B        99.0310   44.7280   19.6870 O.co2 7114  MGP7114      0.0000
      9 O3B        97.1840   43.1020   19.1580 O.3   7114  MGP7114      0.0000
     10 PC         96.1950   42.9930   20.4330 P.3   7114  MGP7114      0.0000
     11 O1C        97.0410   42.5070   21.5860 O.co2 7114  MGP7114     -0.5000
     12 O2C        95.1220   42.0060   20.0430 O.co2 7114  MGP7114     -0.5000
     13 O3C        95.6520   44.3840   20.6550 O.co2 7114  MGP7114      0.0000
     14 C5'       101.8640   40.9110   18.9370 C.3   7114  MGP7114      0.0000
     15 C4'       102.8750   39.8340   18.6290 C.3   7114  MGP7114      0.0000
     16 O4'       102.5200   38.6210   19.3450 O.3   7114  MGP7114      0.0000
     17 C3'       102.9600   39.3910   17.1630 C.3   7114  MGP7114      0.0000
     18 O3'       103.7250   40.2980   16.3790 O.3   7114  MGP7114      0.0000
     19 C2'       103.5650   38.0140   17.3260 C.3   7114  MGP7114      0.0000
     20 O2'       104.9360   38.0530   17.6600 O.3   7114  MGP7114      0.0000
     21 C1'       102.7950   37.4980   18.5330 C.3   7114  MGP7114      0.0000
     22 N9        101.5400   36.8150   18.1660 N.ar  7114  MGP7114      0.0000
     23 C8        100.3160   37.1730   18.5420 C.ar  7114  MGP7114      0.0000
     24 N7         99.4140   36.4740   17.8600 N.ar  7114  MGP7114      0.0000
     25 CM7        97.9660   36.6590   17.9420 C.3   7114  MGP7114      0.0000
     26 C5        100.0930   35.5250   17.1020 C.ar  7114  MGP7114      0.0000
     27 C6         99.6450   34.5020   16.2670 C.ar  7114  MGP7114      0.0000
     28 O6         98.4930   34.2000   15.9820 O.2   7114  MGP7114      0.0000
     29 N1        100.7080   33.8000   15.7410 N.ar  7114  MGP7114      0.0000
     30 C2        102.0320   34.0520   15.9830 C.ar  7114  MGP7114      0.0000
     31 N2        102.9210   33.2610   15.3760 N.pl3 7114  MGP7114      0.0000
     32 N3        102.4430   35.0220   16.7780 N.ar  7114  MGP7114      0.0000
     33 C4        101.4340   35.7320   17.3210 C.ar  7114  MGP7114      0.0000
     34 H         101.9509   41.2101   20.0023 H     7114  MGP7114      0.0000
     35 H         102.0735   41.8174   18.3320 H     7114  MGP7114      0.0000
     36 H         103.8780   40.1687   18.9723 H     7114  MGP7114      0.0000
     37 H         101.9415   39.3049   16.7291 H     7114  MGP7114      0.0000
     38 H         104.6355   40.0483   16.4890 H     7114  MGP7114      0.0000
     39 H         103.4093   37.4038   16.4134 H     7114  MGP7114      0.0000
     40 H         105.2979   37.1839   17.5490 H     7114  MGP7114      0.0000
     41 H         103.3938   36.7600   19.1080 H     7114  MGP7114      0.0000
     42 H          99.9865   37.9643   19.2177 H     7114  MGP7114      0.0000
     43 H          97.3921   35.9541   17.3057 H     7114  MGP7114      0.0000
     44 H          97.6833   37.6868   17.6243 H     7114  MGP7114      0.0000
     45 H          97.6084   36.5220   18.9864 H     7114  MGP7114      0.0000
     46 H         103.9026   33.4793   15.5840 H     7114  MGP7114      0.0000
     47 H         102.5966   32.5067   14.7590 H     7114  MGP7114      0.0000
     48 H         100.5321   33.0131   15.1063 H     7114  MGP7114      0.0000
     49 H         100.5808   39.2575   20.8463 H     7114  MGP7114      0.0000
     50 H          95.0856   44.7413   19.7430 H     7114  MGP7114      0.0000
@<TRIPOS>BOND
     1     1     2    1
     2     1     3    2
     3     1     4    1
     4     1     5    1
     5     4     6    1
     6     5    14    1
     7     6     7    2
     8     6     8    2
     9     6     9    1
    10     9    10    1
    11    10    11   ar
    12    10    12   ar
    13    10    13    1
    14    14    15    1
    15    14    34    1
    16    14    35    1
    17    15    16    1
    18    15    17    1
    19    15    36    1
    20    16    21    1
    21    17    18    1
    22    17    19    1
    23    17    37    1
    24    18    38    1
    25    19    20    1
    26    19    21    1
    27    19    39    1
    28    20    40    1
    29    21    22    1
    30    21    41    1
    31    22    23   ar
    32    22    33   ar
    33    23    24   ar
    34    23    42    1
    35    24    25    1
    36    24    26   ar
    37    25    43    1
    38    25    44    1
    39    25    45    1
    40    26    27   ar
    41    26    33   ar
    42    27    28    2
    43    27    29   ar
    44    29    30   ar
    45    29    48    1
    46    30    31    1
    47    30    32   ar
    48    31    46    1
    49    31    47    1
    50    32    33   ar
    51     2    49    1
    52    13    50    1

