SAM_1_A_7112
  -ISIS-            3D

 50 52  0  0  0  0  0  0  0  0  1 V2000
   82.3860   19.5880   24.3630 N   0  3  0  0  0
   81.0560   19.0790   24.7870 C   0  0  0  0  0
   79.9660   19.9310   24.1300 C   0  0  0  0  0
   80.1730   20.3880   23.0010 O   0  0  0  0  0
   78.8910   20.1730   24.6720 O   0  0  0  0  0
   80.9270   19.1050   26.3160 C   0  0  0  0  0
   82.0030   18.2650   27.0050 C   0  0  0  0  0
   81.7170   18.0580   28.7830 S   0  0  0  0  0
   82.0240   19.7040   29.3940 C   0  0  0  0  0
   83.2720   17.2260   29.2090 C   0  0  0  0  0
   83.3700   15.8480   28.5850 C   0  0  0  0  0
   84.6720   15.2760   28.8460 O   0  0  0  0  0
   82.3520   14.8290   29.1110 C   0  0  0  0  0
   81.4500   14.4800   28.0680 O   0  0  0  0  0
   83.2110   13.6470   29.5910 C   0  0  0  0  0
   82.6500   12.3950   29.2690 O   0  0  0  0  0
   84.5140   13.8790   28.8380 C   0  0  0  0  0
   85.6830   13.2490   29.4430 N   0  0  0  0  0
   86.1740   13.4630   30.7060 C   0  0  0  0  0
   87.2390   12.7530   30.9800 N   0  0  0  0  0
   87.4650   12.0140   29.8290 C   0  0  0  0  0
   88.4470   11.0610   29.4920 C   0  0  0  0  0
   89.4210   10.6750   30.3160 N   0  0  0  0  0
   88.3860   10.5120   28.2550 N   0  0  0  0  0
   87.4020   10.9000   27.4340 C   0  0  0  0  0
   86.4250   11.7780   27.6430 N   0  0  0  0  0
   86.5120   12.3110   28.8730 C   0  0  0  0  0
   83.1330   18.9953   24.7103 H   0  0  0  0  0
   82.5396   20.5327   24.7044 H   0  0  0  0  0
   80.9342   18.0309   24.4230 H   0  0  0  0  0
   79.9238   18.7109   26.6007 H   0  0  0  0  0
   80.9750   20.1565   26.6804 H   0  0  0  0  0
   83.0100   18.7140   26.8601 H   0  0  0  0  0
   82.0144   17.2564   26.5371 H   0  0  0  0  0
   82.0876   19.6942   30.5037 H   0  0  0  0  0
   81.1950   20.3887   29.1141 H   0  0  0  0  0
   82.9706   20.1346   29.0029 H   0  0  0  0  0
   83.3443   17.1547   30.3163 H   0  0  0  0  0
   84.1272   17.8536   28.8747 H   0  0  0  0  0
   83.2704   15.9263   27.4820 H   0  0  0  0  0
   81.7771   15.2373   29.9683 H   0  0  0  0  0
   81.2326   13.5629   28.1908 H   0  0  0  0  0
   83.3718   13.7310   30.6869 H   0  0  0  0  0
   83.2801   11.7260   29.5037 H   0  0  0  0  0
   84.4276   13.5203   27.7899 H   0  0  0  0  0
   85.7897   14.1451   31.4758 H   0  0  0  0  0
   87.4009   10.4195   26.4402 H   0  0  0  0  0
   90.0660    9.9710   29.9363 H   0  0  0  0  0
   89.4495   11.1053   31.2492 H   0  0  0  0  0
   82.4666   19.5967   23.3504 H   0  0  0  0  0
  1  2  1  0  0  0
  1 28  1  0  0  0
  1 29  1  0  0  0
  2  3  1  0  0  0
  2  6  1  0  0  0
  2 30  1  0  0  0
  3  4  2  0  0  0
  3  5  2  0  0  0
  6  7  1  0  0  0
  6 31  1  0  0  0
  6 32  1  0  0  0
  7  8  1  0  0  0
  7 33  1  0  0  0
  7 34  1  0  0  0
  8  9  1  0  0  0
  8 10  1  0  0  0
  9 35  1  0  0  0
  9 36  1  0  0  0
  9 37  1  0  0  0
 10 11  1  0  0  0
 10 38  1  0  0  0
 10 39  1  0  0  0
 11 12  1  0  0  0
 11 13  1  0  0  0
 11 40  1  0  0  0
 12 17  1  0  0  0
 13 14  1  0  0  0
 13 15  1  0  0  0
 13 41  1  0  0  0
 14 42  1  0  0  0
 15 16  1  0  0  0
 15 17  1  0  0  0
 15 43  1  0  0  0
 16 44  1  0  0  0
 17 18  1  0  0  0
 17 45  1  0  0  0
 18 19  1  0  0  0
 18 27  1  0  0  0
 19 20  2  0  0  0
 19 46  1  0  0  0
 20 21  1  0  0  0
 21 22  2  0  0  0
 21 27  1  0  0  0
 22 23  1  0  0  0
 22 24  1  0  0  0
 23 48  1  0  0  0
 23 49  1  0  0  0
 24 25  2  0  0  0
 25 26  1  0  0  0
 25 47  1  0  0  0
 26 27  2  0  0  0
  1 50  1  0  0  0
M  END
$$$$
