@<TRIPOS>MOLECULE
DMS_2_A_402
 10 9 0 0 0
SMALL
NO_CHARGES

@<TRIPOS>ATOM
      1 S          -6.1970   -1.0580    6.2800 S.o    402  DMS402      0.0000
      2 O          -7.0930   -0.8760    7.4350 O.2    402  DMS402      0.0000
      3 C1         -7.1930   -0.8290    4.8110 C.3    402  DMS402      0.0000
      4 C2         -5.9070   -2.7850    6.1070 C.3    402  DMS402      0.0000
      5 H          -6.5952   -1.0755    3.9098 H      402  DMS402      0.0000
      6 H          -7.5155    0.2305    4.7493 H      402  DMS402      0.0000
      7 H          -8.0910   -1.4793    4.8497 H      402  DMS402      0.0000
      8 H          -5.3413   -2.9814    5.1734 H      402  DMS402      0.0000
      9 H          -6.8680   -3.3386    6.0789 H      402  DMS402      0.0000
     10 H          -5.3091   -3.1460    6.9687 H      402  DMS402      0.0000
@<TRIPOS>BOND
     1     1     2    2
     2     1     3    1
     3     1     4    1
     4     3     5    1
     5     3     6    1
     6     3     7    1
     7     4     8    1
     8     4     9    1
     9     4    10    1

