@<TRIPOS>MOLECULE
DMS_1_A_403
 10 9 0 0 0
SMALL
NO_CHARGES

@<TRIPOS>ATOM
      1 S           2.4100  -18.9800    8.0270 S.o    403  DMS403      0.0000
      2 O           3.7060  -18.7400    8.7860 O.2    403  DMS403      0.0000
      3 C1          1.1340  -18.2410    9.0270 C.3    403  DMS403      0.0000
      4 C2          2.0020  -20.6710    8.3880 C.3    403  DMS403      0.0000
      5 H           0.1362  -18.5267    8.6357 H      403  DMS403      0.0000
      6 H           1.2313  -17.1369    8.9861 H      403  DMS403      0.0000
      7 H           1.2270  -18.5720   10.0818 H      403  DMS403      0.0000
      8 H           0.9815  -20.8995    8.0183 H      403  DMS403      0.0000
      9 H           2.0498  -20.8581    9.4806 H      403  DMS403      0.0000
     10 H           2.7246  -21.3392    7.8764 H      403  DMS403      0.0000
@<TRIPOS>BOND
     1     1     2    2
     2     1     3    1
     3     1     4    1
     4     3     5    1
     5     3     6    1
     6     3     7    1
     7     4     8    1
     8     4     9    1
     9     4    10    1

