DMS_2_A_405
  -ISIS-            3D

 10  9  0  0  0  0  0  0  0  0  1 V2000
   -5.8410    0.4910  -18.1360 S   0  0  0  0  0
   -6.6320    1.2590  -17.1200 O   0  0  0  0  0
   -6.9000    0.3770  -19.5540 C   0  0  0  0  0
   -4.6840    1.6530  -18.8340 C   0  0  0  0  0
   -6.3362   -0.0400  -20.4134 H   0  0  0  0  0
   -7.2987    1.3765  -19.8236 H   0  0  0  0  0
   -7.7489   -0.2987  -19.3233 H   0  0  0  0  0
   -4.1762    1.1992  -19.7095 H   0  0  0  0  0
   -3.9203    1.9101  -18.0717 H   0  0  0  0  0
   -5.2064    2.5800  -19.1479 H   0  0  0  0  0
  1  2  2  0  0  0
  1  3  1  0  0  0
  1  4  1  0  0  0
  3  5  1  0  0  0
  3  6  1  0  0  0
  3  7  1  0  0  0
  4  8  1  0  0  0
  4  9  1  0  0  0
  4 10  1  0  0  0
M  END
$$$$
