DMS_1_A_403
  -ISIS-            3D

 10  9  0  0  0  0  0  0  0  0  1 V2000
    2.4100  -18.9800    8.0270 S   0  0  0  0  0
    3.7060  -18.7400    8.7860 O   0  0  0  0  0
    1.1340  -18.2410    9.0270 C   0  0  0  0  0
    2.0020  -20.6710    8.3880 C   0  0  0  0  0
    0.1362  -18.5267    8.6357 H   0  0  0  0  0
    1.2313  -17.1369    8.9861 H   0  0  0  0  0
    1.2270  -18.5720   10.0818 H   0  0  0  0  0
    0.9815  -20.8995    8.0183 H   0  0  0  0  0
    2.0498  -20.8581    9.4806 H   0  0  0  0  0
    2.7246  -21.3392    7.8764 H   0  0  0  0  0
  1  2  2  0  0  0
  1  3  1  0  0  0
  1  4  1  0  0  0
  3  5  1  0  0  0
  3  6  1  0  0  0
  3  7  1  0  0  0
  4  8  1  0  0  0
  4  9  1  0  0  0
  4 10  1  0  0  0
M  END
$$$$
