@<TRIPOS>MOLECULE
DMS_2_A_405
 10 9 0 0 0
SMALL
NO_CHARGES

@<TRIPOS>ATOM
      1 S          -5.8410    0.4910  -18.1360 S.o    405  DMS405      0.0000
      2 O          -6.6320    1.2590  -17.1200 O.2    405  DMS405      0.0000
      3 C1         -6.9000    0.3770  -19.5540 C.3    405  DMS405      0.0000
      4 C2         -4.6840    1.6530  -18.8340 C.3    405  DMS405      0.0000
      5 H          -6.3362   -0.0400  -20.4134 H      405  DMS405      0.0000
      6 H          -7.2987    1.3765  -19.8236 H      405  DMS405      0.0000
      7 H          -7.7489   -0.2987  -19.3233 H      405  DMS405      0.0000
      8 H          -4.1762    1.1992  -19.7095 H      405  DMS405      0.0000
      9 H          -3.9203    1.9101  -18.0717 H      405  DMS405      0.0000
     10 H          -5.2064    2.5800  -19.1479 H      405  DMS405      0.0000
@<TRIPOS>BOND
     1     1     2    2
     2     1     3    1
     3     1     4    1
     4     3     5    1
     5     3     6    1
     6     3     7    1
     7     4     8    1
     8     4     9    1
     9     4    10    1

