@<TRIPOS>MOLECULE
AZP_1_A_307
 89 90 0 0 0
SMALL
NO_CHARGES

@<TRIPOS>ATOM
      1 N          17.4470    2.7070   20.8740 N.am   307  AZP307      0.0000
      2 CAI        18.3480    3.3380   20.1040 C.2    307  AZP307      0.0000
      3 OAH        17.8170    4.1610   19.0270 O.3    307  AZP307      0.0000
      4 CAG        18.8680    4.7480   18.2510 C.3    307  AZP307      0.0000
      5 CAE        19.6150    5.8790   18.9450 C.ar   307  AZP307      0.0000
      6 CAD        19.1250    7.1870   18.8780 C.ar   307  AZP307      0.0000
      7 CAC        19.8450    8.2270   19.4940 C.ar   307  AZP307      0.0000
      8 CAB        21.0520    7.9540   20.1560 C.ar   307  AZP307      0.0000
      9 CAA        21.5420    6.6350   20.2240 C.ar   307  AZP307      0.0000
     10 CAF        20.8170    5.5910   19.6330 C.ar   307  AZP307      0.0000
     11 OAL        19.5680    3.2800   20.3280 O.2    307  AZP307      0.0000
     12 CA         17.7590    1.8930   22.0650 C.3    307  AZP307      0.0000
     13 CB         17.3200    2.7110   23.2690 C.3    307  AZP307      0.0000
     14 CG         17.2520    1.9280   24.5680 C.3    307  AZP307      0.0000
     15 CD1        18.6300    2.0600   25.2260 C.3    307  AZP307      0.0000
     16 CD2        16.2000    2.5820   25.4810 C.3    307  AZP307      0.0000
     17 C          17.0310    0.5970   21.8830 C.2    307  AZP307      0.0000
     18 O          15.8070    0.5050   21.7030 O.2    307  AZP307      0.0000
     19 NAS        17.7340   -0.4950   21.8270 N.am   307  AZP307      0.0000
     20 CAT        17.0460   -1.7670   21.6260 C.3    307  AZP307      0.0000
     21 CAV        18.0600   -2.8940   21.7870 C.3    307  AZP307      0.0000
     22 CAW        18.9280   -3.0480   20.5510 C.ar   307  AZP307      0.0000
     23 CBF        18.3770   -3.0310   19.2690 C.ar   307  AZP307      0.0000
     24 CBG        19.2280   -3.2530   18.1640 C.ar   307  AZP307      0.0000
     25 CBH        20.5980   -3.5140   18.3480 C.ar   307  AZP307      0.0000
     26 CBI        21.1320   -3.5950   19.6100 C.ar   307  AZP307      0.0000
     27 CBJ        20.3040   -3.3710   20.7140 C.ar   307  AZP307      0.0000
     28 CAU        15.9600   -1.9320   22.6700 C.2    307  AZP307      0.0000
     29 OAY        16.1580   -1.5620   23.8020 O.2    307  AZP307      0.0000
     30 NAX        14.7890   -2.4880   22.3690 N.am   307  AZP307      0.0000
     31 NAZ        13.8090   -2.7580   23.4300 N.am   307  AZP307      0.0000
     32 CBA        12.6240   -1.9210   23.6020 C.3    307  AZP307      0.0000
     33 CBB        13.0670   -0.6490   24.2860 C.3    307  AZP307      0.0000
     34 CBC        11.8550    0.1820   24.5670 C.2    307  AZP307      0.0000
     35 NBE        11.7350    0.8560   25.7120 N.am   307  AZP307      0.0000
     36 OBD        10.9820    0.1550   23.7110 O.2    307  AZP307      0.0000
     37 CBK        13.9060   -3.8970   24.1290 C.2    307  AZP307      0.0000
     38 OBL        13.2820   -4.0340   25.2010 O.2    307  AZP307      0.0000
     39 CBM        14.9340   -4.9350   23.6700 C.3    307  AZP307      0.0000
     40 CBO        15.6700   -5.4550   24.9120 C.3    307  AZP307      0.0000
     41 OBN        16.3480   -4.2910   25.3830 O.3    307  AZP307      0.0000
     42 CBP        16.7630   -6.4550   24.5350 C.2    307  AZP307      0.0000
     43 OBQ        16.6750   -7.6780   24.6390 O.2    307  AZP307      0.0000
     44 OBR        17.9880   -5.9150   24.0190 O.3    307  AZP307      0.0000
     45 CBS        18.8420   -6.9430   23.4810 C.3    307  AZP307      0.0000
     46 CBT        19.7210   -6.1150   22.5530 C.3    307  AZP307      0.0000
     47 H          16.4554    2.7878   20.6106 H      307  AZP307      0.0000
     48 H          18.4245    5.1521   17.3167 H      307  AZP307      0.0000
     49 H          19.5851    3.9745   17.9046 H      307  AZP307      0.0000
     50 H          18.1832    7.4104   18.3491 H      307  AZP307      0.0000
     51 H          19.4627    9.2610   19.4509 H      307  AZP307      0.0000
     52 H          21.6189    8.7748   20.6273 H      307  AZP307      0.0000
     53 H          22.4918    6.4240   20.7440 H      307  AZP307      0.0000
     54 H          21.2250    4.5706   19.6889 H      307  AZP307      0.0000
     55 H          18.8546    1.7030   22.1428 H      307  AZP307      0.0000
     56 H          16.2968    3.0981   23.0497 H      307  AZP307      0.0000
     57 H          17.9603    3.6169   23.3726 H      307  AZP307      0.0000
     58 H          16.9922    0.8587   24.4048 H      307  AZP307      0.0000
     59 H          18.6691    1.5063   26.1909 H      307  AZP307      0.0000
     60 H          18.9015    3.1163   25.4479 H      307  AZP307      0.0000
     61 H          19.4355    1.6369   24.5851 H      307  AZP307      0.0000
     62 H          16.1660    2.0881   26.4780 H      307  AZP307      0.0000
     63 H          15.1762    2.5013   25.0509 H      307  AZP307      0.0000
     64 H          16.4043    3.6622   25.6552 H      307  AZP307      0.0000
     65 H          18.7587   -0.4713   21.9155 H      307  AZP307      0.0000
     66 H          16.5646   -1.7928   20.6238 H      307  AZP307      0.0000
     67 H          17.5184   -3.8562   21.9283 H      307  AZP307      0.0000
     68 H          18.6754   -2.7423   22.7023 H      307  AZP307      0.0000
     69 H          17.3055   -2.8577   19.0838 H      307  AZP307      0.0000
     70 H          18.8129   -3.2224   17.1420 H      307  AZP307      0.0000
     71 H          21.2444   -3.6707   17.4675 H      307  AZP307      0.0000
     72 H          22.2006   -3.8284   19.7533 H      307  AZP307      0.0000
     73 H          20.7376   -3.4379   21.7258 H      307  AZP307      0.0000
     74 H          14.5799   -2.7159   21.3873 H      307  AZP307      0.0000
     75 H          11.8331   -2.4234   24.2045 H      307  AZP307      0.0000
     76 H          12.1720   -1.6972   22.6083 H      307  AZP307      0.0000
     77 H          13.7752   -0.0740   23.6476 H      307  AZP307      0.0000
     78 H          13.5966   -0.8960   25.2348 H      307  AZP307      0.0000
     79 H          15.6633   -4.5507   22.9308 H      307  AZP307      0.0000
     80 H          14.3981   -5.7755   23.1751 H      307  AZP307      0.0000
     81 H          14.9891   -5.8834   25.6755 H      307  AZP307      0.0000
     82 H          15.7140   -3.6876   25.7496 H      307  AZP307      0.0000
     83 H          18.3020   -7.7138   22.8921 H      307  AZP307      0.0000
     84 H          19.4479   -7.4309   24.2727 H      307  AZP307      0.0000
     85 H          20.5122   -6.7424   22.0877 H      307  AZP307      0.0000
     86 H          20.2359   -5.2924   23.0953 H      307  AZP307      0.0000
     87 H          19.1320   -5.6736   21.7214 H      307  AZP307      0.0000
     88 H          10.8697    1.3866   25.8747 H      307  AZP307      0.0000
     89 H          12.4955    0.8378   26.4034 H      307  AZP307      0.0000
@<TRIPOS>BOND
     1     1     2    1
     2     1    12    1
     3     1    47    1
     4     2     3    1
     5     2    11    2
     6     3     4    1
     7     4     5    1
     8     4    48    1
     9     4    49    1
    10     5     6   ar
    11     5    10   ar
    12     6     7   ar
    13     6    50    1
    14     7     8   ar
    15     7    51    1
    16     8     9   ar
    17     8    52    1
    18     9    10   ar
    19     9    53    1
    20    10    54    1
    21    12    13    1
    22    12    17    1
    23    12    55    1
    24    13    14    1
    25    13    56    1
    26    13    57    1
    27    14    15    1
    28    14    16    1
    29    14    58    1
    30    15    59    1
    31    15    60    1
    32    15    61    1
    33    16    62    1
    34    16    63    1
    35    16    64    1
    36    17    18    2
    37    17    19    1
    38    19    20    1
    39    19    65    1
    40    20    21    1
    41    20    28    1
    42    20    66    1
    43    21    22    1
    44    21    67    1
    45    21    68    1
    46    22    23   ar
    47    22    27   ar
    48    23    24   ar
    49    23    69    1
    50    24    25   ar
    51    24    70    1
    52    25    26   ar
    53    25    71    1
    54    26    27   ar
    55    26    72    1
    56    27    73    1
    57    28    29    2
    58    28    30    1
    59    30    31    1
    60    30    74    1
    61    31    32    1
    62    31    37    1
    63    32    33    1
    64    32    75    1
    65    32    76    1
    66    33    34    1
    67    33    77    1
    68    33    78    1
    69    34    35    1
    70    34    36    2
    71    35    88    1
    72    35    89    1
    73    37    38    2
    74    37    39    1
    75    39    40    1
    76    39    79    1
    77    39    80    1
    78    40    41    1
    79    40    42    1
    80    40    81    1
    81    41    82    1
    82    42    43    2
    83    42    44    1
    84    44    45    1
    85    45    46    1
    86    45    83    1
    87    45    84    1
    88    46    85    1
    89    46    86    1
    90    46    87    1

