@<TRIPOS>MOLECULE
AZP_2_A_307
 89 90 0 0 0
SMALL
NO_CHARGES

@<TRIPOS>ATOM
      1 N         -31.7070    2.7070   30.0280 N.am   307  AZP307      0.0000
      2 CAI       -32.6080    3.3380   30.7980 C.2    307  AZP307      0.0000
      3 OAH       -32.0770    4.1610   31.8750 O.3    307  AZP307      0.0000
      4 CAG       -33.1280    4.7480   32.6510 C.3    307  AZP307      0.0000
      5 CAE       -33.8750    5.8790   31.9570 C.ar   307  AZP307      0.0000
      6 CAD       -33.3850    7.1870   32.0240 C.ar   307  AZP307      0.0000
      7 CAC       -34.1050    8.2270   31.4080 C.ar   307  AZP307      0.0000
      8 CAB       -35.3120    7.9540   30.7460 C.ar   307  AZP307      0.0000
      9 CAA       -35.8020    6.6350   30.6780 C.ar   307  AZP307      0.0000
     10 CAF       -35.0770    5.5910   31.2690 C.ar   307  AZP307      0.0000
     11 OAL       -33.8280    3.2800   30.5740 O.2    307  AZP307      0.0000
     12 CA        -32.0190    1.8930   28.8370 C.3    307  AZP307      0.0000
     13 CB        -31.5800    2.7110   27.6330 C.3    307  AZP307      0.0000
     14 CG        -31.5120    1.9280   26.3340 C.3    307  AZP307      0.0000
     15 CD1       -32.8900    2.0600   25.6760 C.3    307  AZP307      0.0000
     16 CD2       -30.4600    2.5820   25.4210 C.3    307  AZP307      0.0000
     17 C         -31.2910    0.5970   29.0190 C.2    307  AZP307      0.0000
     18 O         -30.0670    0.5050   29.1990 O.2    307  AZP307      0.0000
     19 NAS       -31.9940   -0.4950   29.0750 N.am   307  AZP307      0.0000
     20 CAT       -31.3060   -1.7670   29.2760 C.3    307  AZP307      0.0000
     21 CAV       -32.3200   -2.8940   29.1150 C.3    307  AZP307      0.0000
     22 CAW       -33.1880   -3.0480   30.3510 C.ar   307  AZP307      0.0000
     23 CBF       -32.6370   -3.0310   31.6330 C.ar   307  AZP307      0.0000
     24 CBG       -33.4880   -3.2530   32.7380 C.ar   307  AZP307      0.0000
     25 CBH       -34.8580   -3.5140   32.5540 C.ar   307  AZP307      0.0000
     26 CBI       -35.3920   -3.5950   31.2920 C.ar   307  AZP307      0.0000
     27 CBJ       -34.5640   -3.3710   30.1880 C.ar   307  AZP307      0.0000
     28 CAU       -30.2200   -1.9320   28.2320 C.2    307  AZP307      0.0000
     29 OAY       -30.4180   -1.5620   27.1000 O.2    307  AZP307      0.0000
     30 NAX       -29.0490   -2.4880   28.5330 N.am   307  AZP307      0.0000
     31 NAZ       -28.0690   -2.7580   27.4720 N.am   307  AZP307      0.0000
     32 CBA       -26.8840   -1.9210   27.3000 C.3    307  AZP307      0.0000
     33 CBB       -27.3270   -0.6490   26.6160 C.3    307  AZP307      0.0000
     34 CBC       -26.1150    0.1820   26.3350 C.2    307  AZP307      0.0000
     35 NBE       -25.9950    0.8560   25.1900 N.am   307  AZP307      0.0000
     36 OBD       -25.2420    0.1550   27.1910 O.2    307  AZP307      0.0000
     37 CBK       -28.1660   -3.8970   26.7730 C.2    307  AZP307      0.0000
     38 OBL       -27.5420   -4.0340   25.7010 O.2    307  AZP307      0.0000
     39 CBM       -29.1940   -4.9350   27.2320 C.3    307  AZP307      0.0000
     40 CBO       -29.9300   -5.4550   25.9900 C.3    307  AZP307      0.0000
     41 OBN       -30.6080   -4.2910   25.5190 O.3    307  AZP307      0.0000
     42 CBP       -31.0230   -6.4550   26.3670 C.2    307  AZP307      0.0000
     43 OBQ       -30.9350   -7.6780   26.2630 O.2    307  AZP307      0.0000
     44 OBR       -32.2480   -5.9150   26.8830 O.3    307  AZP307      0.0000
     45 CBS       -33.1020   -6.9430   27.4210 C.3    307  AZP307      0.0000
     46 CBT       -33.9810   -6.1150   28.3490 C.3    307  AZP307      0.0000
     47 H         -30.7154    2.7878   30.2914 H      307  AZP307      0.0000
     48 H         -32.6845    5.1521   33.5853 H      307  AZP307      0.0000
     49 H         -33.8451    3.9745   32.9974 H      307  AZP307      0.0000
     50 H         -32.4432    7.4104   32.5529 H      307  AZP307      0.0000
     51 H         -33.7227    9.2610   31.4511 H      307  AZP307      0.0000
     52 H         -35.8789    8.7748   30.2747 H      307  AZP307      0.0000
     53 H         -36.7518    6.4240   30.1580 H      307  AZP307      0.0000
     54 H         -35.4850    4.5706   31.2131 H      307  AZP307      0.0000
     55 H         -33.1146    1.7030   28.7592 H      307  AZP307      0.0000
     56 H         -30.5568    3.0982   27.8523 H      307  AZP307      0.0000
     57 H         -32.2203    3.6169   27.5294 H      307  AZP307      0.0000
     58 H         -31.2523    0.8587   26.4972 H      307  AZP307      0.0000
     59 H         -32.9295    1.5053   24.7117 H      307  AZP307      0.0000
     60 H         -33.1610    3.1162   25.4530 H      307  AZP307      0.0000
     61 H         -33.6957    1.6380   26.3174 H      307  AZP307      0.0000
     62 H         -30.4261    2.0882   24.4240 H      307  AZP307      0.0000
     63 H         -29.4362    2.5011   25.8511 H      307  AZP307      0.0000
     64 H         -30.6642    3.6623   25.2469 H      307  AZP307      0.0000
     65 H         -33.0187   -0.4713   28.9865 H      307  AZP307      0.0000
     66 H         -30.8246   -1.7928   30.2782 H      307  AZP307      0.0000
     67 H         -31.7784   -3.8561   28.9737 H      307  AZP307      0.0000
     68 H         -32.9354   -2.7424   28.1997 H      307  AZP307      0.0000
     69 H         -31.5655   -2.8577   31.8182 H      307  AZP307      0.0000
     70 H         -33.0729   -3.2224   33.7600 H      307  AZP307      0.0000
     71 H         -35.5044   -3.6707   33.4345 H      307  AZP307      0.0000
     72 H         -36.4606   -3.8284   31.1487 H      307  AZP307      0.0000
     73 H         -34.9976   -3.4379   29.1762 H      307  AZP307      0.0000
     74 H         -28.8399   -2.7159   29.5147 H      307  AZP307      0.0000
     75 H         -26.0931   -2.4234   26.6975 H      307  AZP307      0.0000
     76 H         -26.4320   -1.6972   28.2937 H      307  AZP307      0.0000
     77 H         -28.0352   -0.0740   27.2544 H      307  AZP307      0.0000
     78 H         -27.8566   -0.8960   25.6672 H      307  AZP307      0.0000
     79 H         -29.9233   -4.5507   27.9712 H      307  AZP307      0.0000
     80 H         -28.6581   -5.7755   27.7269 H      307  AZP307      0.0000
     81 H         -29.2491   -5.8834   25.2265 H      307  AZP307      0.0000
     82 H         -29.9741   -3.6879   25.1520 H      307  AZP307      0.0000
     83 H         -32.5620   -7.7137   28.0099 H      307  AZP307      0.0000
     84 H         -33.7079   -7.4310   26.6293 H      307  AZP307      0.0000
     85 H         -34.7716   -6.7426   28.8151 H      307  AZP307      0.0000
     86 H         -34.4967   -5.2930   27.8065 H      307  AZP307      0.0000
     87 H         -33.3919   -5.6728   29.1801 H      307  AZP307      0.0000
     88 H         -25.1296    1.3864   25.0272 H      307  AZP307      0.0000
     89 H         -26.7556    0.8380   24.4987 H      307  AZP307      0.0000
@<TRIPOS>BOND
     1     1     2    1
     2     1    12    1
     3     1    47    1
     4     2     3    1
     5     2    11    2
     6     3     4    1
     7     4     5    1
     8     4    48    1
     9     4    49    1
    10     5     6   ar
    11     5    10   ar
    12     6     7   ar
    13     6    50    1
    14     7     8   ar
    15     7    51    1
    16     8     9   ar
    17     8    52    1
    18     9    10   ar
    19     9    53    1
    20    10    54    1
    21    12    13    1
    22    12    17    1
    23    12    55    1
    24    13    14    1
    25    13    56    1
    26    13    57    1
    27    14    15    1
    28    14    16    1
    29    14    58    1
    30    15    59    1
    31    15    60    1
    32    15    61    1
    33    16    62    1
    34    16    63    1
    35    16    64    1
    36    17    18    2
    37    17    19    1
    38    19    20    1
    39    19    65    1
    40    20    21    1
    41    20    28    1
    42    20    66    1
    43    21    22    1
    44    21    67    1
    45    21    68    1
    46    22    23   ar
    47    22    27   ar
    48    23    24   ar
    49    23    69    1
    50    24    25   ar
    51    24    70    1
    52    25    26   ar
    53    25    71    1
    54    26    27   ar
    55    26    72    1
    56    27    73    1
    57    28    29    2
    58    28    30    1
    59    30    31    1
    60    30    74    1
    61    31    32    1
    62    31    37    1
    63    32    33    1
    64    32    75    1
    65    32    76    1
    66    33    34    1
    67    33    77    1
    68    33    78    1
    69    34    35    1
    70    34    36    2
    71    35    88    1
    72    35    89    1
    73    37    38    2
    74    37    39    1
    75    39    40    1
    76    39    79    1
    77    39    80    1
    78    40    41    1
    79    40    42    1
    80    40    81    1
    81    41    82    1
    82    42    43    2
    83    42    44    1
    84    44    45    1
    85    45    46    1
    86    45    83    1
    87    45    84    1
    88    46    85    1
    89    46    86    1
    90    46    87    1

