@<TRIPOS>MOLECULE
EDO_1_A_308
 10 9 0 0 0
SMALL
NO_CHARGES

@<TRIPOS>ATOM
      1 C1        -10.1900    4.7640   26.2640 C.3    308  EDO308      0.0000
      2 O1         -9.0160    4.0450   25.8200 O.3    308  EDO308      0.0000
      3 C2        -10.0640    6.2660   25.9900 C.3    308  EDO308      0.0000
      4 O2        -10.5600    6.5810   24.7010 O.3    308  EDO308      0.0000
      5 H         -10.2953    4.5945   27.3562 H      308  EDO308      0.0000
      6 H         -11.0992    4.3414   25.7879 H      308  EDO308      0.0000
      7 H          -8.9824    4.1272   24.8755 H      308  EDO308      0.0000
      8 H          -9.0090    6.5975   26.0878 H      308  EDO308      0.0000
      9 H         -10.6544    6.8291   26.7444 H      308  EDO308      0.0000
     10 H         -10.4767    7.5160   24.5677 H      308  EDO308      0.0000
@<TRIPOS>BOND
     1     1     2    1
     2     1     3    1
     3     1     5    1
     4     1     6    1
     5     2     7    1
     6     3     4    1
     7     3     8    1
     8     3     9    1
     9     4    10    1

