DMS_2_A_504
  -ISIS-            3D

 10  9  0  0  0  0  0  0  0  0  1 V2000
   -2.3230  -18.7350   -8.0710 S   0  0  0  0  0
   -2.0870  -20.1610   -7.6830 O   0  0  0  0  0
   -1.1480  -18.2180   -9.3640 C   0  0  0  0  0
   -3.8400  -18.6390   -9.0670 C   0  0  0  0  0
   -1.3912  -17.1886   -9.6977 H   0  0  0  0  0
   -1.2041  -18.9146  -10.2258 H   0  0  0  0  0
   -0.1203  -18.2329   -8.9473 H   0  0  0  0  0
   -3.9901  -17.5975   -9.4173 H   0  0  0  0  0
   -4.7052  -18.9408   -8.4420 H   0  0  0  0  0
   -3.7635  -19.3198   -9.9396 H   0  0  0  0  0
  1  2  2  0  0  0
  1  3  1  0  0  0
  1  4  1  0  0  0
  3  5  1  0  0  0
  3  6  1  0  0  0
  3  7  1  0  0  0
  4  8  1  0  0  0
  4  9  1  0  0  0
  4 10  1  0  0  0
M  END
$$$$
