DMS_2_A_503
  -ISIS-            3D

 10  9  0  0  0  0  0  0  0  0  1 V2000
   -6.9410  -28.1400  -21.3930 S   0  0  0  0  0
   -7.7370  -27.2630  -22.2750 O   0  0  0  0  0
   -5.6600  -28.9040  -22.4160 C   0  0  0  0  0
   -5.8770  -27.2150  -20.2630 C   0  0  0  0  0
   -5.0109  -29.5441  -21.7841 H   0  0  0  0  0
   -5.0466  -28.1188  -22.9036 H   0  0  0  0  0
   -6.1392  -29.5308  -23.1956 H   0  0  0  0  0
   -5.2370  -27.9190  -19.6929 H   0  0  0  0  0
   -6.5086  -26.6416  -19.5541 H   0  0  0  0  0
   -5.2390  -26.5111  -20.8357 H   0  0  0  0  0
  1  2  2  0  0  0
  1  3  1  0  0  0
  1  4  1  0  0  0
  3  5  1  0  0  0
  3  6  1  0  0  0
  3  7  1  0  0  0
  4  8  1  0  0  0
  4  9  1  0  0  0
  4 10  1  0  0  0
M  END
$$$$
