@<TRIPOS>MOLECULE
DMS_1_A_503
 10 9 0 0 0
SMALL
NO_CHARGES

@<TRIPOS>ATOM
      1 S           6.9410  -28.1400   21.3930 S.o    503  DMS503      0.0000
      2 O           7.7370  -27.2630   22.2750 O.2    503  DMS503      0.0000
      3 C1          5.6600  -28.9040   22.4160 C.3    503  DMS503      0.0000
      4 C2          5.8770  -27.2150   20.2630 C.3    503  DMS503      0.0000
      5 H           5.0109  -29.5441   21.7841 H      503  DMS503      0.0000
      6 H           5.0466  -28.1188   22.9036 H      503  DMS503      0.0000
      7 H           6.1392  -29.5308   23.1956 H      503  DMS503      0.0000
      8 H           5.2370  -27.9190   19.6929 H      503  DMS503      0.0000
      9 H           6.5086  -26.6416   19.5541 H      503  DMS503      0.0000
     10 H           5.2390  -26.5111   20.8357 H      503  DMS503      0.0000
@<TRIPOS>BOND
     1     1     2    2
     2     1     3    1
     3     1     4    1
     4     3     5    1
     5     3     6    1
     6     3     7    1
     7     4     8    1
     8     4     9    1
     9     4    10    1

