IMD_1_A_506
  -ISIS-            3D

  9  9  0  0  0  0  0  0  0  0  1 V2000
   20.3770  -17.3360    4.2110 N   0  0  0  0  0
   20.3590  -17.3030    5.5610 C   0  0  0  0  0
   20.6300  -16.0420    5.9660 N   0  0  0  0  0
   20.8200  -15.2780    4.8690 C   0  0  0  0  0
   20.6560  -16.0940    3.7610 C   0  0  0  0  0
   20.2055  -18.1647    3.6284 H   0  0  0  0  0
   20.1706  -18.0996    6.2921 H   0  0  0  0  0
   21.0551  -14.2122    4.9711 H   0  0  0  0  0
   20.7377  -15.7999    2.7043 H   0  0  0  0  0
  1  2  2  0  0  0
  1  5  1  0  0  0
  1  6  1  0  0  0
  2  3  1  0  0  0
  2  7  1  0  0  0
  3  4  1  0  0  0
  4  5  1  0  0  0
  4  8  1  0  0  0
  5  9  1  0  0  0
M  END
$$$$
