DMS_2_A_403
  -ISIS-            3D

 10  9  0  0  0  0  0  0  0  0  1 V2000
   -2.4120  -19.0780   -8.2280 S   0  0  0  0  0
   -3.7380  -18.6160   -8.7990 O   0  0  0  0  0
   -1.1730  -18.1110   -9.0620 C   0  0  0  0  0
   -2.0740  -20.6530   -9.0060 C   0  0  0  0  0
   -0.1637  -18.4957   -8.8092 H   0  0  0  0  0
   -1.2478  -17.0548   -8.7314 H   0  0  0  0  0
   -1.3219  -18.1579  -10.1602 H   0  0  0  0  0
   -1.0454  -20.9826   -8.7530 H   0  0  0  0  0
   -2.1752  -20.5675  -10.1074 H   0  0  0  0  0
   -2.7959  -21.4080   -8.6329 H   0  0  0  0  0
  1  2  2  0  0  0
  1  3  1  0  0  0
  1  4  1  0  0  0
  3  5  1  0  0  0
  3  6  1  0  0  0
  3  7  1  0  0  0
  4  8  1  0  0  0
  4  9  1  0  0  0
  4 10  1  0  0  0
M  END
$$$$
