DMS_1_A_402
  -ISIS-            3D

 10  9  0  0  0  0  0  0  0  0  1 V2000
    6.1380   -0.9660   -6.2240 S   0  0  0  0  0
    6.9850   -0.6660   -7.4140 O   0  0  0  0  0
    7.2150   -0.9280   -4.8110 C   0  0  0  0  0
    5.8170   -2.7060   -6.2730 C   0  0  0  0  0
    6.6672   -1.2772   -3.9117 H   0  0  0  0  0
    7.5590    0.1126   -4.6399 H   0  0  0  0  0
    8.0977   -1.5775   -4.9814 H   0  0  0  0  0
    5.3001   -3.0194   -5.3428 H   0  0  0  0  0
    6.7656   -3.2712   -6.3761 H   0  0  0  0  0
    5.1639   -2.9350   -7.1398 H   0  0  0  0  0
  1  2  2  0  0  0
  1  3  1  0  0  0
  1  4  1  0  0  0
  3  5  1  0  0  0
  3  6  1  0  0  0
  3  7  1  0  0  0
  4  8  1  0  0  0
  4  9  1  0  0  0
  4 10  1  0  0  0
M  END
$$$$
