@<TRIPOS>MOLECULE
DMS_1_A_402
 10 9 0 0 0
SMALL
NO_CHARGES

@<TRIPOS>ATOM
      1 S           6.1380   -0.9660   -6.2240 S.o    402  DMS402      0.0000
      2 O           6.9850   -0.6660   -7.4140 O.2    402  DMS402      0.0000
      3 C1          7.2150   -0.9280   -4.8110 C.3    402  DMS402      0.0000
      4 C2          5.8170   -2.7060   -6.2730 C.3    402  DMS402      0.0000
      5 H           6.6672   -1.2772   -3.9117 H      402  DMS402      0.0000
      6 H           7.5590    0.1126   -4.6399 H      402  DMS402      0.0000
      7 H           8.0977   -1.5775   -4.9814 H      402  DMS402      0.0000
      8 H           5.3001   -3.0194   -5.3428 H      402  DMS402      0.0000
      9 H           6.7656   -3.2712   -6.3761 H      402  DMS402      0.0000
     10 H           5.1639   -2.9350   -7.1398 H      402  DMS402      0.0000
@<TRIPOS>BOND
     1     1     2    2
     2     1     3    1
     3     1     4    1
     4     3     5    1
     5     3     6    1
     6     3     7    1
     7     4     8    1
     8     4     9    1
     9     4    10    1

