DMS_2_A_401
  -ISIS-            3D

 10  9  0  0  0  0  0  0  0  0  1 V2000
   -7.2550  -28.1230  -21.2600 S   0  0  0  0  0
   -7.8690  -27.3100  -22.3300 O   0  0  0  0  0
   -6.0440  -29.1140  -22.0880 C   0  0  0  0  0
   -6.1210  -27.0860  -20.4020 C   0  0  0  0  0
   -5.4306  -29.6618  -21.3437 H   0  0  0  0  0
   -5.3841  -28.4807  -22.7159 H   0  0  0  0  0
   -6.5570  -29.8525  -22.7377 H   0  0  0  0  0
   -5.5152  -27.6896  -19.6956 H   0  0  0  0  0
   -6.6851  -26.3249  -19.8250 H   0  0  0  0  0
   -5.4483  -26.5677  -21.1158 H   0  0  0  0  0
  1  2  2  0  0  0
  1  3  1  0  0  0
  1  4  1  0  0  0
  3  5  1  0  0  0
  3  6  1  0  0  0
  3  7  1  0  0  0
  4  8  1  0  0  0
  4  9  1  0  0  0
  4 10  1  0  0  0
M  END
$$$$
