@<TRIPOS>MOLECULE
DMS_2_A_403
 10 9 0 0 0
SMALL
NO_CHARGES

@<TRIPOS>ATOM
      1 S          -2.4120  -19.0780   -8.2280 S.o    403  DMS403      0.0000
      2 O          -3.7380  -18.6160   -8.7990 O.2    403  DMS403      0.0000
      3 C1         -1.1730  -18.1110   -9.0620 C.3    403  DMS403      0.0000
      4 C2         -2.0740  -20.6530   -9.0060 C.3    403  DMS403      0.0000
      5 H          -0.1637  -18.4957   -8.8092 H      403  DMS403      0.0000
      6 H          -1.2478  -17.0548   -8.7314 H      403  DMS403      0.0000
      7 H          -1.3219  -18.1579  -10.1602 H      403  DMS403      0.0000
      8 H          -1.0454  -20.9826   -8.7530 H      403  DMS403      0.0000
      9 H          -2.1752  -20.5675  -10.1074 H      403  DMS403      0.0000
     10 H          -2.7959  -21.4080   -8.6329 H      403  DMS403      0.0000
@<TRIPOS>BOND
     1     1     2    2
     2     1     3    1
     3     1     4    1
     4     3     5    1
     5     3     6    1
     6     3     7    1
     7     4     8    1
     8     4     9    1
     9     4    10    1

