@<TRIPOS>MOLECULE
BNZ_2_A_602
 12 12 0 0 0
SMALL
NO_CHARGES

@<TRIPOS>ATOM
      1 C1        -35.1450   -1.7070   32.8820 C.ar   602  BNZ602      0.0000
      2 C2        -34.6210   -2.9760   33.4600 C.ar   602  BNZ602      0.0000
      3 C3        -33.3540   -3.0470   33.9230 C.ar   602  BNZ602      0.0000
      4 C4        -32.4740   -1.8460   33.8560 C.ar   602  BNZ602      0.0000
      5 C5        -32.9470   -0.6880   33.3300 C.ar   602  BNZ602      0.0000
      6 C6        -34.3430   -0.6130   32.8200 C.ar   602  BNZ602      0.0000
      7 H         -36.1824   -1.6691   32.5090 H      602  BNZ602      0.0000
      8 H         -35.2832   -3.8573   33.5042 H      602  BNZ602      0.0000
      9 H         -32.9595   -3.9837   34.3519 H      602  BNZ602      0.0000
     10 H         -31.4407   -1.9117   34.2368 H      602  BNZ602      0.0000
     11 H         -32.3048    0.2073   33.2747 H      602  BNZ602      0.0000
     12 H         -34.7138    0.3351   32.3950 H      602  BNZ602      0.0000
@<TRIPOS>BOND
     1     1     2   ar
     2     1     6   ar
     3     1     7    1
     4     2     3   ar
     5     2     8    1
     6     3     4   ar
     7     3     9    1
     8     4     5   ar
     9     4    10    1
    10     5     6   ar
    11     5    11    1
    12     6    12    1

