@<TRIPOS>MOLECULE
DMS_1_A_1005
 10 9 0 0 0
SMALL
NO_CHARGES

@<TRIPOS>ATOM
      1 S          20.7240   14.2920    7.7250 S.o   1005  DMS1005      0.0000
      2 O          21.8280   15.2640    7.7500 O.2   1005  DMS1005      0.0000
      3 C1         20.9730   13.2860    9.1570 C.3   1005  DMS1005      0.0000
      4 C2         21.1970   13.1140    6.4950 C.3   1005  DMS1005      0.0000
      5 H          20.2831   12.4179    9.1313 H     1005  DMS1005      0.0000
      6 H          20.7614   13.8832   10.0675 H     1005  DMS1005      0.0000
      7 H          22.0204   12.9225    9.1995 H     1005  DMS1005      0.0000
      8 H          20.5043   12.2481    6.5175 H     1005  DMS1005      0.0000
      9 H          22.2335   12.7605    6.6731 H     1005  DMS1005      0.0000
     10 H          21.1445   13.5869    5.4929 H     1005  DMS1005      0.0000
@<TRIPOS>BOND
     1     1     2    2
     2     1     3    1
     3     1     4    1
     4     3     5    1
     5     3     6    1
     6     3     7    1
     7     4     8    1
     8     4     9    1
     9     4    10    1

