@<TRIPOS>MOLECULE
DMS_2_A_502
 10 9 0 0 0
SMALL
NO_CHARGES

@<TRIPOS>ATOM
      1 S           3.8190  -12.6260    8.5620 S.o    502  DMS502      0.0000
      2 O           2.8980  -13.6580    9.1620 O.2    502  DMS502      0.0000
      3 C1          4.8750  -13.4930    7.4330 C.3    502  DMS502      0.0000
      4 C2          2.8420  -11.6980    7.3960 C.3    502  DMS502      0.0000
      5 H           5.4899  -12.7675    6.8619 H      502  DMS502      0.0000
      6 H           4.2700  -14.0991    6.7282 H      502  DMS502      0.0000
      7 H           5.5491  -14.1650    8.0025 H      502  DMS502      0.0000
      8 H           3.4960  -11.0067    6.8258 H      502  DMS502      0.0000
      9 H           2.0822  -11.1045    7.9444 H      502  DMS502      0.0000
     10 H           2.3281  -12.3850    6.6931 H      502  DMS502      0.0000
@<TRIPOS>BOND
     1     1     2    2
     2     1     3    1
     3     1     4    1
     4     3     5    1
     5     3     6    1
     6     3     7    1
     7     4     8    1
     8     4     9    1
     9     4    10    1

