@<TRIPOS>MOLECULE
MYI_1_A_201
 25 26 0 0 0
SMALL
NO_CHARGES

@<TRIPOS>ATOM
      1 CAA       -48.8700  -28.9560   -0.1650 C.3    201  MYI201      0.0000
      2 OAB       -44.3240  -33.2610    2.5340 O.co2  201  MYI201     -0.5000
      3 OAC       -43.5010  -31.5080    3.4020 O.co2  201  MYI201     -0.5000
      4 CAD       -45.9300  -26.7570    0.0860 C.ar   201  MYI201      0.0000
      5 CAE       -44.5620  -26.7720    0.2020 C.ar   201  MYI201      0.0000
      6 CAF       -42.4670  -29.5580    0.7980 C.ar   201  MYI201      0.0000
      7 CAG       -46.0520  -29.0690    0.4240 C.ar   201  MYI201      0.0000
      8 CAH       -43.9810  -31.6070    0.9720 C.3    201  MYI201      0.0000
      9 NAI       -42.6210  -28.2850    0.6040 N.ar   201  MYI201      0.0000
     10 OAJ       -48.0980  -27.8010    0.0790 O.3    201  MYI201      0.0000
     11 CAK       -43.9260  -32.1150    2.4000 C.2    201  MYI201      0.0000
     12 CAL       -46.7010  -27.8950    0.1910 C.ar   201  MYI201      0.0000
     13 CAM       -43.7040  -30.1420    0.7730 C.ar   201  MYI201      0.0000
     14 CAN       -43.9120  -27.9790    0.4490 C.ar   201  MYI201      0.0000
     15 CAO       -44.6640  -29.1140    0.5320 C.ar   201  MYI201      0.0000
     16 H         -49.9252  -28.6589   -0.3336 H      201  MYI201      0.0000
     17 H         -48.8437  -29.6402    0.7078 H      201  MYI201      0.0000
     18 H         -48.5111  -29.4857   -1.0717 H      201  MYI201      0.0000
     19 H         -46.4352  -25.7930   -0.0981 H      201  MYI201      0.0000
     20 H         -43.9790  -25.8409    0.1086 H      201  MYI201      0.0000
     21 H         -41.4646  -29.9765    0.9511 H      201  MYI201      0.0000
     22 H         -46.6121  -30.0108    0.5326 H      201  MYI201      0.0000
     23 H         -44.9792  -31.8410    0.5371 H      201  MYI201      0.0000
     24 H         -43.2479  -32.1808    0.3595 H      201  MYI201      0.0000
     25 H         -41.6373  -27.4099    0.5611 H      201  MYI201      0.0000
@<TRIPOS>BOND
     1     1    10    1
     2     1    16    1
     3     1    17    1
     4     1    18    1
     5     2    11   ar
     6     3    11   ar
     7     4     5   ar
     8     4    12   ar
     9     4    19    1
    10     5    14   ar
    11     5    20    1
    12     6     9   ar
    13     6    13   ar
    14     6    21    1
    15     7    12   ar
    16     7    15   ar
    17     7    22    1
    18     8    11    1
    19     8    13    1
    20     8    23    1
    21     8    24    1
    22     9    14   ar
    23     9    25    1
    24    10    12    1
    25    13    15   ar
    26    14    15   ar

