MYI_1_A_201
  -ISIS-            3D

 25 26  0  0  0  0  0  0  0  0  1 V2000
  -48.8700  -28.9560   -0.1650 C   0  0  0  0  0
  -44.3240  -33.2610    2.5340 O   0  0  0  0  0
  -43.5010  -31.5080    3.4020 O   0  0  0  0  0
  -45.9300  -26.7570    0.0860 C   0  0  0  0  0
  -44.5620  -26.7720    0.2020 C   0  0  0  0  0
  -42.4670  -29.5580    0.7980 C   0  0  0  0  0
  -46.0520  -29.0690    0.4240 C   0  0  0  0  0
  -43.9810  -31.6070    0.9720 C   0  0  0  0  0
  -42.6210  -28.2850    0.6040 N   0  0  0  0  0
  -48.0980  -27.8010    0.0790 O   0  0  0  0  0
  -43.9260  -32.1150    2.4000 C   0  0  0  0  0
  -46.7010  -27.8950    0.1910 C   0  0  0  0  0
  -43.7040  -30.1420    0.7730 C   0  0  0  0  0
  -43.9120  -27.9790    0.4490 C   0  0  0  0  0
  -44.6640  -29.1140    0.5320 C   0  0  0  0  0
  -49.9252  -28.6589   -0.3336 H   0  0  0  0  0
  -48.8437  -29.6402    0.7078 H   0  0  0  0  0
  -48.5111  -29.4857   -1.0717 H   0  0  0  0  0
  -46.4352  -25.7930   -0.0981 H   0  0  0  0  0
  -43.9790  -25.8409    0.1086 H   0  0  0  0  0
  -41.4646  -29.9765    0.9511 H   0  0  0  0  0
  -46.6121  -30.0108    0.5326 H   0  0  0  0  0
  -44.9792  -31.8410    0.5371 H   0  0  0  0  0
  -43.2479  -32.1808    0.3595 H   0  0  0  0  0
  -41.6373  -27.4099    0.5611 H   0  0  0  0  0
  1 10  1  0  0  0
  1 16  1  0  0  0
  1 17  1  0  0  0
  1 18  1  0  0  0
  2 11  2  0  0  0
  3 11  2  0  0  0
  4  5  2  0  0  0
  4 12  1  0  0  0
  4 19  1  0  0  0
  5 14  1  0  0  0
  5 20  1  0  0  0
  6  9  2  0  0  0
  6 13  1  0  0  0
  6 21  1  0  0  0
  7 12  2  0  0  0
  7 15  1  0  0  0
  7 22  1  0  0  0
  8 11  1  0  0  0
  8 13  1  0  0  0
  8 23  1  0  0  0
  8 24  1  0  0  0
  9 14  1  0  0  0
  9 25  1  0  0  0
 10 12  1  0  0  0
 13 15  2  0  0  0
 14 15  1  0  0  0
M  END
$$$$
