EDO_1_B_401
  -ISIS-            3D

 10  9  0  0  0  0  0  0  0  0  1 V2000
   33.3510    3.2850   16.4870 C   0  0  0  0  0
   32.0620    2.7750   16.1180 O   0  0  0  0  0
   34.3190    3.2730   15.3000 C   0  0  0  0  0
   35.3620    4.2280   15.5650 O   0  0  0  0  0
   33.7613    2.7038   17.3395 H   0  0  0  0  0
   33.2097    4.3258   16.8468 H   0  0  0  0  0
   32.1255    1.8331   16.0272 H   0  0  0  0  0
   33.7945    3.5796   14.3714 H   0  0  0  0  0
   34.7443    2.2625   15.1276 H   0  0  0  0  0
   35.9944    3.8302   16.1487 H   0  0  0  0  0
  1  2  1  0  0  0
  1  3  1  0  0  0
  1  5  1  0  0  0
  1  6  1  0  0  0
  2  7  1  0  0  0
  3  4  1  0  0  0
  3  8  1  0  0  0
  3  9  1  0  0  0
  4 10  1  0  0  0
M  END
$$$$
