EDO_1_B_403
  -ISIS-            3D

 10  9  0  0  0  0  0  0  0  0  1 V2000
    9.7930   14.9660   29.9510 C   0  0  0  0  0
   10.8370   15.2720   30.8780 O   0  0  0  0  0
    8.8750   13.9050   30.5500 C   0  0  0  0  0
    7.7540   13.7660   29.6670 O   0  0  0  0  0
   10.2347   14.6070   28.9975 H   0  0  0  0  0
    9.2182   15.8907   29.7299 H   0  0  0  0  0
   11.3573   15.9779   30.5178 H   0  0  0  0  0
    8.5071   14.2242   31.5469 H   0  0  0  0  0
    9.3989   12.9345   30.6762 H   0  0  0  0  0
    7.9681   13.1162   29.0103 H   0  0  0  0  0
  1  2  1  0  0  0
  1  3  1  0  0  0
  1  5  1  0  0  0
  1  6  1  0  0  0
  2  7  1  0  0  0
  3  4  1  0  0  0
  3  8  1  0  0  0
  3  9  1  0  0  0
  4 10  1  0  0  0
M  END
$$$$
