@<TRIPOS>MOLECULE
EDO_1_A_403
 10 9 0 0 0
SMALL
NO_CHARGES

@<TRIPOS>ATOM
      1 C1        -14.5800   -7.4440   39.3680 C.3    403  EDO403      0.0000
      2 O1        -14.0910   -7.4540   38.0200 O.3    403  EDO403      0.0000
      3 C2        -14.2610   -8.7790   40.0310 C.3    403  EDO403      0.0000
      4 O2        -14.4140   -8.6360   41.4480 O.3    403  EDO403      0.0000
      5 H         -15.6749   -7.2649   39.3571 H      403  EDO403      0.0000
      6 H         -14.1138   -6.6022   39.9231 H      403  EDO403      0.0000
      7 H         -13.1623   -7.2636   38.0366 H      403  EDO403      0.0000
      8 H         -13.2110   -9.0737   39.8251 H      403  EDO403      0.0000
      9 H         -14.9141   -9.5903   39.6469 H      403  EDO403      0.0000
     10 H         -15.3348   -8.7161   41.6592 H      403  EDO403      0.0000
@<TRIPOS>BOND
     1     1     2    1
     2     1     3    1
     3     1     5    1
     4     1     6    1
     5     2     7    1
     6     3     4    1
     7     3     8    1
     8     3     9    1
     9     4    10    1

