EDO_1_B_406
  -ISIS-            3D

 10  9  0  0  0  0  0  0  0  0  1 V2000
   30.7480    1.6830    5.3830 C   0  0  0  0  0
   29.4050    1.2000    5.4870 O   0  0  0  0  0
   31.7490    0.6260    5.8350 C   0  0  0  0  0
   32.9800    0.8650    5.1280 O   0  0  0  0  0
   30.8652    2.6092    5.9842 H   0  0  0  0  0
   30.9391    1.9553    4.3227 H   0  0  0  0  0
   28.8224    1.8745    5.1638 H   0  0  0  0  0
   31.3799   -0.3910    5.5844 H   0  0  0  0  0
   31.9141    0.6714    6.9315 H   0  0  0  0  0
   33.5966    0.1891    5.3765 H   0  0  0  0  0
  1  2  1  0  0  0
  1  3  1  0  0  0
  1  5  1  0  0  0
  1  6  1  0  0  0
  2  7  1  0  0  0
  3  4  1  0  0  0
  3  8  1  0  0  0
  3  9  1  0  0  0
  4 10  1  0  0  0
M  END
$$$$
