@<TRIPOS>MOLECULE
EDO_1_A_402
 10 9 0 0 0
SMALL
NO_CHARGES

@<TRIPOS>ATOM
      1 C1         -9.0630    7.4650   46.3000 C.3    402  EDO402      0.0000
      2 O1         -9.0880    7.9830   44.9610 O.3    402  EDO402      0.0000
      3 C2        -10.1950    6.4650   46.5500 C.3    402  EDO402      0.0000
      4 O2        -10.0060    5.9220   47.8750 O.3    402  EDO402      0.0000
      5 H          -9.1391    8.3072   47.0205 H      402  EDO402      0.0000
      6 H          -8.0820    6.9731   46.4733 H      402  EDO402      0.0000
      7 H          -8.4030    8.6336   44.8821 H      402  EDO402      0.0000
      8 H         -10.1855    5.6526   45.7932 H      402  EDO402      0.0000
      9 H         -11.1825    6.9675   46.4967 H      402  EDO402      0.0000
     10 H          -9.6144    5.0625   47.7925 H      402  EDO402      0.0000
@<TRIPOS>BOND
     1     1     2    1
     2     1     3    1
     3     1     5    1
     4     1     6    1
     5     2     7    1
     6     3     4    1
     7     3     8    1
     8     3     9    1
     9     4    10    1

