@<TRIPOS>MOLECULE
EDO_1_B_403
 10 9 0 0 0
SMALL
NO_CHARGES

@<TRIPOS>ATOM
      1 C1          9.7930   14.9660   29.9510 C.3    403  EDO403      0.0000
      2 O1         10.8370   15.2720   30.8780 O.3    403  EDO403      0.0000
      3 C2          8.8750   13.9050   30.5500 C.3    403  EDO403      0.0000
      4 O2          7.7540   13.7660   29.6670 O.3    403  EDO403      0.0000
      5 H          10.2347   14.6070   28.9975 H      403  EDO403      0.0000
      6 H           9.2182   15.8907   29.7299 H      403  EDO403      0.0000
      7 H          11.3573   15.9779   30.5178 H      403  EDO403      0.0000
      8 H           8.5071   14.2242   31.5469 H      403  EDO403      0.0000
      9 H           9.3989   12.9345   30.6762 H      403  EDO403      0.0000
     10 H           7.9681   13.1162   29.0103 H      403  EDO403      0.0000
@<TRIPOS>BOND
     1     1     2    1
     2     1     3    1
     3     1     5    1
     4     1     6    1
     5     2     7    1
     6     3     4    1
     7     3     8    1
     8     3     9    1
     9     4    10    1

