@<TRIPOS>MOLECULE
EDO_1_B_401
 10 9 0 0 0
SMALL
NO_CHARGES

@<TRIPOS>ATOM
      1 C1         33.3510    3.2850   16.4870 C.3    401  EDO401      0.0000
      2 O1         32.0620    2.7750   16.1180 O.3    401  EDO401      0.0000
      3 C2         34.3190    3.2730   15.3000 C.3    401  EDO401      0.0000
      4 O2         35.3620    4.2280   15.5650 O.3    401  EDO401      0.0000
      5 H          33.7613    2.7038   17.3395 H      401  EDO401      0.0000
      6 H          33.2097    4.3258   16.8468 H      401  EDO401      0.0000
      7 H          32.1255    1.8331   16.0272 H      401  EDO401      0.0000
      8 H          33.7945    3.5796   14.3714 H      401  EDO401      0.0000
      9 H          34.7443    2.2625   15.1276 H      401  EDO401      0.0000
     10 H          35.9944    3.8302   16.1487 H      401  EDO401      0.0000
@<TRIPOS>BOND
     1     1     2    1
     2     1     3    1
     3     1     5    1
     4     1     6    1
     5     2     7    1
     6     3     4    1
     7     3     8    1
     8     3     9    1
     9     4    10    1

