@<TRIPOS>MOLECULE
EDO_1_B_401
 10 9 0 0 0
SMALL
NO_CHARGES

@<TRIPOS>ATOM
      1 C1         34.8470    4.2380   12.0020 C.3    401  EDO401      0.0000
      2 O1         33.5520    4.6720   12.4680 O.3    401  EDO401      0.0000
      3 C2         34.7270    3.1440   10.9380 C.3    401  EDO401      0.0000
      4 O2         34.7110    3.7280    9.6210 O.3    401  EDO401      0.0000
      5 H          35.4308    3.8614   12.8691 H      401  EDO401      0.0000
      6 H          35.4025    5.1122   11.6050 H      401  EDO401      0.0000
      7 H          33.2177    4.0259   13.0764 H      401  EDO401      0.0000
      8 H          33.8148    2.5319   11.0970 H      401  EDO401      0.0000
      9 H          35.5979    2.4579   11.0077 H      401  EDO401      0.0000
     10 H          34.5398    3.0400    8.9915 H      401  EDO401      0.0000
@<TRIPOS>BOND
     1     1     2    1
     2     1     3    1
     3     1     5    1
     4     1     6    1
     5     2     7    1
     6     3     4    1
     7     3     8    1
     8     3     9    1
     9     4    10    1

