EDO_1_B_401
  -ISIS-            3D

 10  9  0  0  0  0  0  0  0  0  1 V2000
   34.8470    4.2380   12.0020 C   0  0  0  0  0
   33.5520    4.6720   12.4680 O   0  0  0  0  0
   34.7270    3.1440   10.9380 C   0  0  0  0  0
   34.7110    3.7280    9.6210 O   0  0  0  0  0
   35.4308    3.8614   12.8691 H   0  0  0  0  0
   35.4025    5.1122   11.6050 H   0  0  0  0  0
   33.2177    4.0259   13.0764 H   0  0  0  0  0
   33.8148    2.5319   11.0970 H   0  0  0  0  0
   35.5979    2.4579   11.0077 H   0  0  0  0  0
   34.5398    3.0400    8.9915 H   0  0  0  0  0
  1  2  1  0  0  0
  1  3  1  0  0  0
  1  5  1  0  0  0
  1  6  1  0  0  0
  2  7  1  0  0  0
  3  4  1  0  0  0
  3  8  1  0  0  0
  3  9  1  0  0  0
  4 10  1  0  0  0
M  END
$$$$
