@<TRIPOS>MOLECULE
4FS_1_A_201
 19 20 0 0 0
SMALL
NO_CHARGES

@<TRIPOS>ATOM
      1 C1        -51.9820  -29.6620    5.9900 C.ar   201  4FS201      0.0000
      2 C5        -47.4840  -28.7790    4.1810 C.ar   201  4FS201      0.0000
      3 C3        -49.7040  -29.0020    3.3320 C.ar   201  4FS201      0.0000
      4 C6        -47.9300  -29.0090    5.4540 C.ar   201  4FS201      0.0000
      5 N         -51.8180  -29.9760    8.4300 N.3    201  4FS201      0.0000
      6 C         -51.2030  -29.6990    7.1470 C.ar   201  4FS201      0.0000
      7 C8        -49.8360  -29.4670    7.0100 C.ar   201  4FS201      0.0000
      8 C7        -49.3200  -29.2130    5.6970 C.ar   201  4FS201      0.0000
      9 C2        -50.1740  -29.2100    4.6510 C.ar   201  4FS201      0.0000
     10 N1        -51.4700  -29.4580    4.8250 N.ar   201  4FS201      0.0000
     11 C4        -48.3650  -28.7620    3.1000 C.ar   201  4FS201      0.0000
     12 H         -53.0684  -29.8371    6.0519 H      201  4FS201      0.0000
     13 H         -46.4088  -28.6054    4.0031 H      201  4FS201      0.0000
     14 H         -50.4158  -29.0232    2.4900 H      201  4FS201      0.0000
     15 H         -47.2147  -29.0298    6.2934 H      201  4FS201      0.0000
     16 H         -51.1837  -30.0008    9.2383 H      201  4FS201      0.0000
     17 H         -52.8351  -30.1259    8.4361 H      201  4FS201      0.0000
     18 H         -49.1681  -29.4848    7.8857 H      201  4FS201      0.0000
     19 H         -47.9960  -28.5737    2.0779 H      201  4FS201      0.0000
@<TRIPOS>BOND
     1     1     6   ar
     2     1    10   ar
     3     1    12    1
     4     2     4   ar
     5     2    11   ar
     6     2    13    1
     7     3     9   ar
     8     3    11   ar
     9     3    14    1
    10     4     8   ar
    11     4    15    1
    12     5     6    1
    13     5    16    1
    14     5    17    1
    15     6     7   ar
    16     7     8   ar
    17     7    18    1
    18     8     9   ar
    19     9    10   ar
    20    11    19    1

