@<TRIPOS>MOLECULE
EDO_2_A_411
 10 9 0 0 0
SMALL
NO_CHARGES

@<TRIPOS>ATOM
      1 C1        -40.0310   63.4870  -24.6690 C.3    411  EDO411      0.0000
      2 O1        -39.5290   64.8180  -24.8430 O.3    411  EDO411      0.0000
      3 C2        -39.4140   62.8750  -23.4180 C.3    411  EDO411      0.0000
      4 O2        -37.9990   62.7520  -23.5990 O.3    411  EDO411      0.0000
      5 H         -39.7760   62.8832  -25.5646 H      411  EDO411      0.0000
      6 H         -41.1390   63.5032  -24.5924 H      411  EDO411      0.0000
      7 H         -40.1529   65.4276  -24.4716 H      411  EDO411      0.0000
      8 H         -39.8392   61.8675  -23.2297 H      411  EDO411      0.0000
      9 H         -39.6256   63.4953  -22.5221 H      411  EDO411      0.0000
     10 H         -37.6987   63.5830  -23.9488 H      411  EDO411      0.0000
@<TRIPOS>BOND
     1     1     2    1
     2     1     3    1
     3     1     5    1
     4     1     6    1
     5     2     7    1
     6     3     4    1
     7     3     8    1
     8     3     9    1
     9     4    10    1

