EDO_1_A_411
  -ISIS-            3D

 10  9  0  0  0  0  0  0  0  0  1 V2000
  -75.9430    2.9240  -24.6690 C   0  0  0  0  0
  -75.0410    1.8240  -24.8430 O   0  0  0  0  0
  -76.7820    2.6960  -23.4180 C   0  0  0  0  0
  -77.5960    1.5320  -23.5990 O   0  0  0  0  0
  -76.5936    3.0232  -25.5635 H   0  0  0  0  0
  -75.3620    3.8655  -24.5713 H   0  0  0  0  0
  -74.5237    1.9857  -25.6207 H   0  0  0  0  0
  -77.4413    3.5680  -23.2284 H   0  0  0  0  0
  -76.1374    2.5682  -22.5232 H   0  0  0  0  0
  -77.0090    0.8377  -23.8753 H   0  0  0  0  0
  1  2  1  0  0  0
  1  3  1  0  0  0
  1  5  1  0  0  0
  1  6  1  0  0  0
  2  7  1  0  0  0
  3  4  1  0  0  0
  3  8  1  0  0  0
  3  9  1  0  0  0
  4 10  1  0  0  0
M  END
$$$$
