@<TRIPOS>MOLECULE
EDO_3_B_403
 10 9 0 0 0
SMALL
NO_CHARGES

@<TRIPOS>ATOM
      1 C1       -110.9750   50.5350   31.4390 C.3    403  EDO403      0.0000
      2 O1       -111.0370   50.9170   30.0610 O.3    403  EDO403      0.0000
      3 C2       -111.3590   49.0670   31.5740 C.3    403  EDO403      0.0000
      4 O2       -112.5120   48.7910   30.7710 O.3    403  EDO403      0.0000
      5 H        -111.6769   51.1665   32.0242 H      403  EDO403      0.0000
      6 H        -109.9539   50.7101   31.8382 H      403  EDO403      0.0000
      7 H        -110.8010   51.8328   29.9966 H      403  EDO403      0.0000
      8 H        -111.5733   48.8076   32.6306 H      403  EDO403      0.0000
      9 H        -110.5236   48.4172   31.2382 H      403  EDO403      0.0000
     10 H        -112.3850   49.2546   29.9508 H      403  EDO403      0.0000
@<TRIPOS>BOND
     1     1     2    1
     2     1     3    1
     3     1     5    1
     4     1     6    1
     5     2     7    1
     6     3     4    1
     7     3     8    1
     8     3     9    1
     9     4    10    1

