@<TRIPOS>MOLECULE
EDO_2_B_408
 10 9 0 0 0
SMALL
NO_CHARGES

@<TRIPOS>ATOM
      1 C1        -55.8330   73.4010   19.2180 C.3    408  EDO408      0.0000
      2 O1        -55.3920   72.8410   17.9780 O.3    408  EDO408      0.0000
      3 C2        -54.6270   73.6230   20.1220 C.3    408  EDO408      0.0000
      4 O2        -53.6990   74.4840   19.4540 O.3    408  EDO408      0.0000
      5 H         -56.5562   72.7067   19.6929 H      408  EDO408      0.0000
      6 H         -56.3668   74.3551   19.0256 H      408  EDO408      0.0000
      7 H         -54.6069   73.3168   17.7307 H      408  EDO408      0.0000
      8 H         -54.1265   72.6579   20.3447 H      408  EDO408      0.0000
      9 H         -54.9341   74.0649   21.0934 H      408  EDO408      0.0000
     10 H         -53.8896   75.3802   19.6975 H      408  EDO408      0.0000
@<TRIPOS>BOND
     1     1     2    1
     2     1     3    1
     3     1     5    1
     4     1     6    1
     5     2     7    1
     6     3     4    1
     7     3     8    1
     8     3     9    1
     9     4    10    1

