EDO_2_B_405
  -ISIS-            3D

 10  9  0  0  0  0  0  0  0  0  1 V2000
  -76.3160   72.6260   22.0090 C   0  0  0  0  0
  -75.4350   73.7190   21.7230 O   0  0  0  0  0
  -75.5730   71.5560   22.8010 C   0  0  0  0  0
  -74.4420   71.0910   22.0540 O   0  0  0  0  0
  -76.7080   72.2087   21.0577 H   0  0  0  0  0
  -77.1854   73.0045   22.5850 H   0  0  0  0  0
  -74.6384   73.3330   21.3769 H   0  0  0  0  0
  -76.2506   70.7032   23.0178 H   0  0  0  0  0
  -75.2320   71.9660   23.7753 H   0  0  0  0  0
  -74.0032   70.4246   22.5656 H   0  0  0  0  0
  1  2  1  0  0  0
  1  3  1  0  0  0
  1  5  1  0  0  0
  1  6  1  0  0  0
  2  7  1  0  0  0
  3  4  1  0  0  0
  3  8  1  0  0  0
  3  9  1  0  0  0
  4 10  1  0  0  0
M  END
$$$$
