EDO_1_A_408
  -ISIS-            3D

 10  9  0  0  0  0  0  0  0  0  1 V2000
  -70.7590    6.9580  -19.8030 C   0  0  0  0  0
  -71.5970    8.1030  -19.6100 O   0  0  0  0  0
  -71.3720    6.0710  -20.8770 C   0  0  0  0  0
  -71.6070    6.8620  -22.0470 O   0  0  0  0  0
  -70.6569    6.4029  -18.8471 H   0  0  0  0  0
  -69.7437    7.2856  -20.1127 H   0  0  0  0  0
  -71.1136    8.7454  -19.1071 H   0  0  0  0  0
  -72.3310    5.6414  -20.5167 H   0  0  0  0  0
  -70.6947    5.2269  -21.1238 H   0  0  0  0  0
  -72.1614    6.3667  -22.6358 H   0  0  0  0  0
  1  2  1  0  0  0
  1  3  1  0  0  0
  1  5  1  0  0  0
  1  6  1  0  0  0
  2  7  1  0  0  0
  3  4  1  0  0  0
  3  8  1  0  0  0
  3  9  1  0  0  0
  4 10  1  0  0  0
M  END
$$$$
