@<TRIPOS>MOLECULE
EDO_3_A_410
 10 9 0 0 0
SMALL
NO_CHARGES

@<TRIPOS>ATOM
      1 C1        -83.8520   25.1970   -0.4130 C.3    410  EDO410      0.0000
      2 O1        -84.7390   24.6620   -1.4050 O.3    410  EDO410      0.0000
      3 C2        -83.6620   24.1950    0.7180 C.3    410  EDO410      0.0000
      4 O2        -83.3480   22.9060    0.1770 O.3    410  EDO410      0.0000
      5 H         -84.2396   26.1633   -0.0268 H      410  EDO410      0.0000
      6 H         -82.8755   25.4105   -0.8959 H      410  EDO410      0.0000
      7 H         -85.6228   24.9367   -1.1977 H      410  EDO410      0.0000
      8 H         -84.5881   24.1157    1.3253 H      410  EDO410      0.0000
      9 H         -82.8475   24.5159    1.3992 H      410  EDO410      0.0000
     10 H         -83.8576   22.8142   -0.6204 H      410  EDO410      0.0000
@<TRIPOS>BOND
     1     1     2    1
     2     1     3    1
     3     1     5    1
     4     1     6    1
     5     2     7    1
     6     3     4    1
     7     3     8    1
     8     3     9    1
     9     4    10    1

