@<TRIPOS>MOLECULE
EDO_1_A_407
 10 9 0 0 0
SMALL
NO_CHARGES

@<TRIPOS>ATOM
      1 C1        -88.5850   19.2120  -23.5700 C.3    407  EDO407      0.0000
      2 O1        -87.3840   19.1050  -22.7980 O.3    407  EDO407      0.0000
      3 C2        -89.7510   18.6110  -22.7970 C.3    407  EDO407      0.0000
      4 O2        -90.9620   18.8690  -23.5170 O.3    407  EDO407      0.0000
      5 H         -88.4506   18.6887  -24.5402 H      407  EDO407      0.0000
      6 H         -88.7836   20.2826  -23.7902 H      407  EDO407      0.0000
      7 H         -86.6875   19.5435  -23.2690 H      407  EDO407      0.0000
      8 H         -89.8299   19.0785  -21.7937 H      407  EDO407      0.0000
      9 H         -89.6148   17.5196  -22.6455 H      407  EDO407      0.0000
     10 H         -91.0917   18.1713  -24.1457 H      407  EDO407      0.0000
@<TRIPOS>BOND
     1     1     2    1
     2     1     3    1
     3     1     5    1
     4     1     6    1
     5     2     7    1
     6     3     4    1
     7     3     8    1
     8     3     9    1
     9     4    10    1

