EDO_3_A_408
  -ISIS-            3D

 10  9  0  0  0  0  0  0  0  0  1 V2000
 -109.5350   57.8000  -19.8030 C   0  0  0  0  0
 -108.1240   57.9530  -19.6100 O   0  0  0  0  0
 -109.9960   58.7740  -20.8770 C   0  0  0  0  0
 -109.1940   58.5820  -22.0470 O   0  0  0  0  0
 -110.0558   58.0039  -18.8449 H   0  0  0  0  0
 -109.7664   56.7518  -20.0877 H   0  0  0  0  0
 -107.6958   57.5293  -20.3428 H   0  0  0  0  0
 -109.9154   59.8246  -20.5261 H   0  0  0  0  0
 -111.0600   58.5924  -21.1334 H   0  0  0  0  0
 -108.4166   59.1187  -21.9519 H   0  0  0  0  0
  1  2  1  0  0  0
  1  3  1  0  0  0
  1  5  1  0  0  0
  1  6  1  0  0  0
  2  7  1  0  0  0
  3  4  1  0  0  0
  3  8  1  0  0  0
  3  9  1  0  0  0
  4 10  1  0  0  0
M  END
$$$$
