@<TRIPOS>MOLECULE
EDO_3_B_406
 10 9 0 0 0
SMALL
NO_CHARGES

@<TRIPOS>ATOM
      1 C1       -109.9100   66.7940   24.4690 C.3    406  EDO406      0.0000
      2 O1       -108.7670   66.6370   25.3180 O.3    406  EDO406      0.0000
      3 C2       -109.5200   67.6020   23.2380 C.3    406  EDO406      0.0000
      4 O2       -108.4200   66.9600   22.5800 O.3    406  EDO406      0.0000
      5 H        -110.7220   67.3084   25.0251 H      406  EDO406      0.0000
      6 H        -110.2906   65.7944   24.1694 H      406  EDO406      0.0000
      7 H        -109.0302   66.1365   26.0786 H      406  EDO406      0.0000
      8 H        -109.2284   68.6351   23.5215 H      406  EDO406      0.0000
      9 H        -110.3720   67.6803   22.5319 H      406  EDO406      0.0000
     10 H        -107.7895   66.7528   23.2607 H      406  EDO406      0.0000
@<TRIPOS>BOND
     1     1     2    1
     2     1     3    1
     3     1     5    1
     4     1     6    1
     5     2     7    1
     6     3     4    1
     7     3     8    1
     8     3     9    1
     9     4    10    1

