EDO_3_A_409
  -ISIS-            3D

 10  9  0  0  0  0  0  0  0  0  1 V2000
  -84.8320   36.5150  -16.6510 C   0  0  0  0  0
  -85.1730   37.8830  -16.8990 O   0  0  0  0  0
  -84.6910   36.2910  -15.1490 C   0  0  0  0  0
  -83.6280   37.1030  -14.6290 O   0  0  0  0  0
  -83.8897   36.2635  -17.1812 H   0  0  0  0  0
  -85.6288   35.8651  -17.0679 H   0  0  0  0  0
  -84.6048   38.4080  -16.3470 H   0  0  0  0  0
  -84.4924   35.2205  -14.9296 H   0  0  0  0  0
  -85.6343   36.5578  -14.6287 H   0  0  0  0  0
  -82.8168   36.6169  -14.6963 H   0  0  0  0  0
  1  2  1  0  0  0
  1  3  1  0  0  0
  1  5  1  0  0  0
  1  6  1  0  0  0
  2  7  1  0  0  0
  3  4  1  0  0  0
  3  8  1  0  0  0
  3  9  1  0  0  0
  4 10  1  0  0  0
M  END
$$$$
