@<TRIPOS>MOLECULE
EDO_3_B_409
 10 9 0 0 0
SMALL
NO_CHARGES

@<TRIPOS>ATOM
      1 C1        -79.9660   54.3690   14.4680 C.3    409  EDO409      0.0000
      2 O1        -79.5440   53.1500   13.8410 O.3    409  EDO409      0.0000
      3 C2        -80.7760   54.0520   15.7200 C.3    409  EDO409      0.0000
      4 O2        -81.9760   53.3600   15.3540 O.3    409  EDO409      0.0000
      5 H         -80.5628   54.9710   13.7512 H      409  EDO409      0.0000
      6 H         -79.0674   54.9650   14.7296 H      409  EDO409      0.0000
      7 H         -80.3250   52.6177   13.7433 H      409  EDO409      0.0000
      8 H         -81.0398   54.9919   16.2497 H      409  EDO409      0.0000
      9 H         -80.1814   53.4289   16.4211 H      409  EDO409      0.0000
     10 H         -82.4675   53.1811   16.1445 H      409  EDO409      0.0000
@<TRIPOS>BOND
     1     1     2    1
     2     1     3    1
     3     1     5    1
     4     1     6    1
     5     2     7    1
     6     3     4    1
     7     3     8    1
     8     3     9    1
     9     4    10    1

