@<TRIPOS>MOLECULE
EDO_1_A_410
 10 9 0 0 0
SMALL
NO_CHARGES

@<TRIPOS>ATOM
      1 C1        -55.3650   45.5010   -0.4130 C.3    410  EDO410      0.0000
      2 O1        -54.4580   45.0010   -1.4050 O.3    410  EDO410      0.0000
      3 C2        -54.5920   46.1670    0.7180 C.3    410  EDO410      0.0000
      4 O2        -53.6330   47.0840    0.1770 O.3    410  EDO410      0.0000
      5 H         -55.9851   44.6653   -0.0287 H      410  EDO410      0.0000
      6 H         -56.0551   46.2290   -0.8895 H      410  EDO410      0.0000
      7 H         -53.8044   45.6798   -1.5314 H      410  EDO410      0.0000
      8 H         -54.0633   45.3982    1.3209 H      410  EDO410      0.0000
      9 H         -55.2868   46.7040    1.3977 H      410  EDO410      0.0000
     10 H         -53.1671   47.4847    0.8987 H      410  EDO410      0.0000
@<TRIPOS>BOND
     1     1     2    1
     2     1     3    1
     3     1     5    1
     4     1     6    1
     5     2     7    1
     6     3     4    1
     7     3     8    1
     8     3     9    1
     9     4    10    1

