@<TRIPOS>MOLECULE
EDO_3_A_403
 10 9 0 0 0
SMALL
NO_CHARGES

@<TRIPOS>ATOM
      1 C1       -103.1100   51.1650  -34.3660 C.3    403  EDO403      0.0000
      2 O1       -101.7760   50.9580  -33.8840 O.3    403  EDO403      0.0000
      3 C2       -103.1040   52.1800  -35.5020 C.3    403  EDO403      0.0000
      4 O2       -102.8400   53.4860  -34.9770 O.3    403  EDO403      0.0000
      5 H        -103.7645   51.5070  -33.5367 H      403  EDO403      0.0000
      6 H        -103.5165   50.1976  -34.7305 H      403  EDO403      0.0000
      7 H        -101.8095   50.3188  -33.1848 H      403  EDO403      0.0000
      8 H        -104.0928   52.1970  -36.0057 H      403  EDO403      0.0000
      9 H        -102.3480   51.9189  -36.2716 H      403  EDO403      0.0000
     10 H        -102.0165   53.4267  -34.5078 H      403  EDO403      0.0000
@<TRIPOS>BOND
     1     1     2    1
     2     1     3    1
     3     1     5    1
     4     1     6    1
     5     2     7    1
     6     3     4    1
     7     3     8    1
     8     3     9    1
     9     4    10    1

