EDO_1_B_403
  -ISIS-            3D

 10  9  0  0  0  0  0  0  0  0  1 V2000
  -63.7470    9.3430   31.4390 C   0  0  0  0  0
  -64.0470    9.0990   30.0610 O   0  0  0  0  0
  -62.2840    9.7450   31.5740 C   0  0  0  0  0
  -61.4680    8.8840   30.7710 O   0  0  0  0  0
  -63.9369    8.4094   32.0088 H   0  0  0  0  0
  -64.4166   10.1233   31.8581 H   0  0  0  0  0
  -64.5566    9.8262   29.7293 H   0  0  0  0  0
  -61.9517    9.6899   32.6308 H   0  0  0  0  0
  -62.1394   10.7929   31.2366 H   0  0  0  0  0
  -61.9672    8.6863   29.9863 H   0  0  0  0  0
  1  2  1  0  0  0
  1  3  1  0  0  0
  1  5  1  0  0  0
  1  6  1  0  0  0
  2  7  1  0  0  0
  3  4  1  0  0  0
  3  8  1  0  0  0
  3  9  1  0  0  0
  4 10  1  0  0  0
M  END
$$$$
