@<TRIPOS>MOLECULE
EDO_1_A_406
 10 9 0 0 0
SMALL
NO_CHARGES

@<TRIPOS>ATOM
      1 C1        -93.6100    8.0420  -43.6430 C.3    406  EDO406      0.0000
      2 O1        -94.9200    8.0240  -44.2200 O.3    406  EDO406      0.0000
      3 C2        -92.6500    7.2740  -44.5410 C.3    406  EDO406      0.0000
      4 O2        -92.3690    8.0340  -45.7210 O.3    406  EDO406      0.0000
      5 H         -93.6523    7.5709  -42.6382 H      406  EDO406      0.0000
      6 H         -93.2643    9.0885  -43.5067 H      406  EDO406      0.0000
      7 H         -95.4563    8.6560  -43.7597 H      406  EDO406      0.0000
      8 H         -93.0793    6.2869  -44.8144 H      406  EDO406      0.0000
      9 H         -91.6977    7.0830  -44.0023 H      406  EDO406      0.0000
     10 H         -91.9364    7.4659  -46.3447 H      406  EDO406      0.0000
@<TRIPOS>BOND
     1     1     2    1
     2     1     3    1
     3     1     5    1
     4     1     6    1
     5     2     7    1
     6     3     4    1
     7     3     8    1
     8     3     9    1
     9     4    10    1

