EDO_3_A_402
  -ISIS-            3D

 10  9  0  0  0  0  0  0  0  0  1 V2000
  -87.6900   70.2800  -26.9720 C   0  0  0  0  0
  -86.4050   70.6570  -27.4780 O   0  0  0  0  0
  -87.6180   68.8940  -26.3370 C   0  0  0  0  0
  -87.0520   67.9690  -27.2710 O   0  0  0  0  0
  -88.4260   70.2882  -27.8035 H   0  0  0  0  0
  -88.0250   71.0340  -26.2303 H   0  0  0  0  0
  -86.0710   69.8973  -27.9418 H   0  0  0  0  0
  -88.6318   68.5540  -26.0375 H   0  0  0  0  0
  -86.9907   68.9249  -25.4208 H   0  0  0  0  0
  -87.0187   67.1159  -26.8593 H   0  0  0  0  0
  1  2  1  0  0  0
  1  3  1  0  0  0
  1  5  1  0  0  0
  1  6  1  0  0  0
  2  7  1  0  0  0
  3  4  1  0  0  0
  3  8  1  0  0  0
  3  9  1  0  0  0
  4 10  1  0  0  0
M  END
$$$$
