@<TRIPOS>MOLECULE
EDO_1_B_406
 10 9 0 0 0
SMALL
NO_CHARGES

@<TRIPOS>ATOM
      1 C1        -78.3600    2.1360   24.4690 C.3    406  EDO406      0.0000
      2 O1        -78.7960    3.2040   25.3180 O.3    406  EDO406      0.0000
      3 C2        -79.2550    2.0700   23.2380 C.3    406  EDO406      0.0000
      4 O2        -79.2490    3.3430   22.5800 O.3    406  EDO406      0.0000
      5 H         -78.3962    1.1776   25.0281 H      406  EDO406      0.0000
      6 H         -77.3055    2.3071   24.1643 H      406  EDO406      0.0000
      7 H         -78.1265    3.3576   25.9718 H      406  EDO406      0.0000
      8 H         -80.2926    1.8068   23.5348 H      406  EDO406      0.0000
      9 H         -78.8970    1.2868   22.5374 H      406  EDO406      0.0000
     10 H         -79.9512    3.3526   21.9429 H      406  EDO406      0.0000
@<TRIPOS>BOND
     1     1     2    1
     2     1     3    1
     3     1     5    1
     4     1     6    1
     5     2     7    1
     6     3     4    1
     7     3     8    1
     8     3     9    1
     9     4    10    1

