@<TRIPOS>MOLECULE
EDO_2_A_409
 10 9 0 0 0
SMALL
NO_CHARGES

@<TRIPOS>ATOM
      1 C1        -76.9010   55.2090  -16.6510 C.3    409  EDO409      0.0000
      2 O1        -75.5460   54.8210  -16.8990 O.3    409  EDO409      0.0000
      3 C2        -77.1660   55.1990  -15.1490 C.3    409  EDO409      0.0000
      4 O2        -76.9940   53.8730  -14.6290 O.3    409  EDO409      0.0000
      5 H         -77.5902   54.5172  -17.1791 H      409  EDO409      0.0000
      6 H         -77.0669   56.2232  -17.0691 H      409  EDO409      0.0000
      7 H         -75.4075   54.0151  -16.4148 H      409  EDO409      0.0000
      8 H         -78.2019   55.5435  -14.9445 H      409  EDO409      0.0000
      9 H         -76.4752   55.8967  -14.6298 H      409  EDO409      0.0000
     10 H         -77.1700   53.8954  -13.6979 H      409  EDO409      0.0000
@<TRIPOS>BOND
     1     1     2    1
     2     1     3    1
     3     1     5    1
     4     1     6    1
     5     2     7    1
     6     3     4    1
     7     3     8    1
     8     3     9    1
     9     4    10    1

