EDO_1_A_407
  -ISIS-            3D

 10  9  0  0  0  0  0  0  0  0  1 V2000
  -88.5850   19.2120  -23.5700 C   0  0  0  0  0
  -87.3840   19.1050  -22.7980 O   0  0  0  0  0
  -89.7510   18.6110  -22.7970 C   0  0  0  0  0
  -90.9620   18.8690  -23.5170 O   0  0  0  0  0
  -88.4506   18.6887  -24.5402 H   0  0  0  0  0
  -88.7836   20.2826  -23.7902 H   0  0  0  0  0
  -86.6875   19.5435  -23.2690 H   0  0  0  0  0
  -89.8299   19.0785  -21.7937 H   0  0  0  0  0
  -89.6148   17.5196  -22.6455 H   0  0  0  0  0
  -91.0917   18.1713  -24.1457 H   0  0  0  0  0
  1  2  1  0  0  0
  1  3  1  0  0  0
  1  5  1  0  0  0
  1  6  1  0  0  0
  2  7  1  0  0  0
  3  4  1  0  0  0
  3  8  1  0  0  0
  3  9  1  0  0  0
  4 10  1  0  0  0
M  END
$$$$
