@<TRIPOS>MOLECULE
EDO_3_A_406
 10 9 0 0 0
SMALL
NO_CHARGES

@<TRIPOS>ATOM
      1 C1        -97.1700   77.0480  -43.6430 C.3    406  EDO406      0.0000
      2 O1        -96.5310   78.1910  -44.2200 O.3    406  EDO406      0.0000
      3 C2        -98.3160   76.6000  -44.5410 C.3    406  EDO406      0.0000
      4 O2        -97.7980   75.9770  -45.7210 O.3    406  EDO406      0.0000
      5 H         -97.5493   77.2984  -42.6292 H      406  EDO406      0.0000
      6 H         -96.4258   76.2344  -43.5201 H      406  EDO406      0.0000
      7 H         -96.7687   78.9609  -43.7197 H      406  EDO406      0.0000
      8 H         -98.9584   77.4633  -44.8152 H      406  EDO406      0.0000
      9 H         -98.9556   75.8700  -44.0009 H      406  EDO406      0.0000
     10 H         -98.5179   75.8196  -46.3178 H      406  EDO406      0.0000
@<TRIPOS>BOND
     1     1     2    1
     2     1     3    1
     3     1     5    1
     4     1     6    1
     5     2     7    1
     6     3     4    1
     7     3     8    1
     8     3     9    1
     9     4    10    1

