EDO_2_A_408
  -ISIS-            3D

 10  9  0  0  0  0  0  0  0  0  1 V2000
  -46.1160   65.9600  -19.8030 C   0  0  0  0  0
  -46.6890   64.6620  -19.6100 O   0  0  0  0  0
  -45.0420   65.8720  -20.8770 C   0  0  0  0  0
  -45.6090   65.2730  -22.0470 O   0  0  0  0  0
  -45.6893   66.3190  -18.8442 H   0  0  0  0  0
  -46.9128   66.6741  -20.0998 H   0  0  0  0  0
  -46.8658   64.3188  -20.4785 H   0  0  0  0  0
  -44.1876   65.2579  -20.5211 H   0  0  0  0  0
  -44.6524   66.8828  -21.1204 H   0  0  0  0  0
  -44.9341   65.2251  -22.7119 H   0  0  0  0  0
  1  2  1  0  0  0
  1  3  1  0  0  0
  1  5  1  0  0  0
  1  6  1  0  0  0
  2  7  1  0  0  0
  3  4  1  0  0  0
  3  8  1  0  0  0
  3  9  1  0  0  0
  4 10  1  0  0  0
M  END
$$$$
