@<TRIPOS>MOLECULE
EDO_1_A_411
 10 9 0 0 0
SMALL
NO_CHARGES

@<TRIPOS>ATOM
      1 C1        -75.9430    2.9240  -24.6690 C.3    411  EDO411      0.0000
      2 O1        -75.0410    1.8240  -24.8430 O.3    411  EDO411      0.0000
      3 C2        -76.7820    2.6960  -23.4180 C.3    411  EDO411      0.0000
      4 O2        -77.5960    1.5320  -23.5990 O.3    411  EDO411      0.0000
      5 H         -76.5936    3.0232  -25.5635 H      411  EDO411      0.0000
      6 H         -75.3620    3.8655  -24.5713 H      411  EDO411      0.0000
      7 H         -74.5237    1.9857  -25.6207 H      411  EDO411      0.0000
      8 H         -77.4413    3.5680  -23.2284 H      411  EDO411      0.0000
      9 H         -76.1374    2.5682  -22.5232 H      411  EDO411      0.0000
     10 H         -77.0090    0.8377  -23.8753 H      411  EDO411      0.0000
@<TRIPOS>BOND
     1     1     2    1
     2     1     3    1
     3     1     5    1
     4     1     6    1
     5     2     7    1
     6     3     4    1
     7     3     8    1
     8     3     9    1
     9     4    10    1

