EDO_3_B_403
  -ISIS-            3D

 10  9  0  0  0  0  0  0  0  0  1 V2000
 -110.9750   50.5350   31.4390 C   0  0  0  0  0
 -111.0370   50.9170   30.0610 O   0  0  0  0  0
 -111.3590   49.0670   31.5740 C   0  0  0  0  0
 -112.5120   48.7910   30.7710 O   0  0  0  0  0
 -111.6769   51.1665   32.0242 H   0  0  0  0  0
 -109.9539   50.7101   31.8382 H   0  0  0  0  0
 -110.8010   51.8328   29.9966 H   0  0  0  0  0
 -111.5733   48.8076   32.6306 H   0  0  0  0  0
 -110.5236   48.4172   31.2382 H   0  0  0  0  0
 -112.3850   49.2546   29.9508 H   0  0  0  0  0
  1  2  1  0  0  0
  1  3  1  0  0  0
  1  5  1  0  0  0
  1  6  1  0  0  0
  2  7  1  0  0  0
  3  4  1  0  0  0
  3  8  1  0  0  0
  3  9  1  0  0  0
  4 10  1  0  0  0
M  END
$$$$
