@<TRIPOS>MOLECULE
EDO_1_B_407
 10 9 0 0 0
SMALL
NO_CHARGES

@<TRIPOS>ATOM
      1 C1        -63.1160   18.7830   13.1290 C.3    407  EDO407      0.0000
      2 O1        -62.3630   17.6450   13.5610 O.3    407  EDO407      0.0000
      3 C2        -64.3440   18.3120   12.3620 C.3    407  EDO407      0.0000
      4 O2        -63.9380   17.5150   11.2440 O.3    407  EDO407      0.0000
      5 H         -62.4772   19.4307   12.4925 H      407  EDO407      0.0000
      6 H         -63.4118   19.3803   14.0158 H      407  EDO407      0.0000
      7 H         -62.2697   17.0849   12.7991 H      407  EDO407      0.0000
      8 H         -64.9292   19.1853   12.0037 H      407  EDO407      0.0000
      9 H         -65.0073   17.7155   13.0238 H      407  EDO407      0.0000
     10 H         -64.7170   17.2338   10.7817 H      407  EDO407      0.0000
@<TRIPOS>BOND
     1     1     2    1
     2     1     3    1
     3     1     5    1
     4     1     6    1
     5     2     7    1
     6     3     4    1
     7     3     8    1
     8     3     9    1
     9     4    10    1

