@<TRIPOS>MOLECULE
EDO_2_A_404
 10 9 0 0 0
SMALL
NO_CHARGES

@<TRIPOS>ATOM
      1 C1        -39.1660   59.6180  -29.3030 C.3    404  EDO404      0.0000
      2 O1        -40.5410   60.0220  -29.3120 O.3    404  EDO404      0.0000
      3 C2        -38.7240   59.3780  -27.8660 C.3    404  EDO404      0.0000
      4 O2        -38.8760   60.5940  -27.1260 O.3    404  EDO404      0.0000
      5 H         -38.5440   60.4017  -29.7841 H      404  EDO404      0.0000
      6 H         -39.0571   58.6929  -29.9056 H      404  EDO404      0.0000
      7 H         -40.6148   60.7221  -28.6733 H      404  EDO404      0.0000
      8 H         -37.6619   59.0549  -27.8393 H      404  EDO404      0.0000
      9 H         -39.3324   58.5748  -27.3992 H      404  EDO404      0.0000
     10 H         -38.5925   60.4356  -26.2356 H      404  EDO404      0.0000
@<TRIPOS>BOND
     1     1     2    1
     2     1     3    1
     3     1     5    1
     4     1     6    1
     5     2     7    1
     6     3     4    1
     7     3     8    1
     8     3     9    1
     9     4    10    1

