@<TRIPOS>MOLECULE
EDO_3_B_405
 10 9 0 0 0
SMALL
NO_CHARGES

@<TRIPOS>ATOM
      1 C1       -100.2080   28.3130   22.0090 C.3    405  EDO405      0.0000
      2 O1       -101.5950   28.5300   21.7230 O.3    405  EDO405      0.0000
      3 C2        -99.6530   29.4920   22.8010 C.3    405  EDO405      0.0000
      4 O2        -99.8160   30.7030   22.0540 O.3    405  EDO405      0.0000
      5 H         -99.6469   28.1896   21.0586 H      405  EDO405      0.0000
      6 H        -100.0909   27.3738   22.5899 H      405  EDO405      0.0000
      7 H        -101.9165   27.7846   21.2333 H      405  EDO405      0.0000
      8 H         -98.5747   29.3434   23.0154 H      405  EDO405      0.0000
      9 H        -100.1722   29.5877   23.7778 H      405  EDO405      0.0000
     10 H        -100.7159   30.7060   21.7486 H      405  EDO405      0.0000
@<TRIPOS>BOND
     1     1     2    1
     2     1     3    1
     3     1     5    1
     4     1     6    1
     5     2     7    1
     6     3     4    1
     7     3     8    1
     8     3     9    1
     9     4    10    1

