EDO_2_B_406
  -ISIS-            3D

 10  9  0  0  0  0  0  0  0  0  1 V2000
  -38.1400   61.7880   24.4690 C   0  0  0  0  0
  -38.8470   60.8770   25.3180 O   0  0  0  0  0
  -37.6350   61.0460   23.2380 C   0  0  0  0  0
  -38.7410   60.4150   22.5800 O   0  0  0  0  0
  -37.2944   62.2302   25.0347 H   0  0  0  0  0
  -38.8148   62.6203   24.1788 H   0  0  0  0  0
  -39.3706   60.3264   24.7464 H   0  0  0  0  0
  -36.9021   60.2663   23.5323 H   0  0  0  0  0
  -37.1145   61.7377   22.5425 H   0  0  0  0  0
  -39.0800   61.0093   21.9236 H   0  0  0  0  0
  1  2  1  0  0  0
  1  3  1  0  0  0
  1  5  1  0  0  0
  1  6  1  0  0  0
  2  7  1  0  0  0
  3  4  1  0  0  0
  3  8  1  0  0  0
  3  9  1  0  0  0
  4 10  1  0  0  0
M  END
$$$$
