@<TRIPOS>MOLECULE
EDO_3_A_412
 10 9 0 0 0
SMALL
NO_CHARGES

@<TRIPOS>ATOM
      1 C1        -96.9210   83.4520  -36.1550 C.3    412  EDO412      0.0000
      2 O1        -96.6050   82.8980  -37.4370 O.3    412  EDO412      0.0000
      3 C2        -95.7830   84.3370  -35.6590 C.3    412  EDO412      0.0000
      4 O2        -95.5300   85.3810  -36.6060 O.3    412  EDO412      0.0000
      5 H         -97.1287   82.6374  -35.4293 H      412  EDO412      0.0000
      6 H         -97.8538   84.0467  -36.2458 H      412  EDO412      0.0000
      7 H         -96.1268   82.0897  -37.3064 H      412  EDO412      0.0000
      8 H         -94.8577   83.7416  -35.5119 H      412  EDO412      0.0000
      9 H         -96.0404   84.7919  -34.6803 H      412  EDO412      0.0000
     10 H         -95.5810   84.9828  -37.4676 H      412  EDO412      0.0000
@<TRIPOS>BOND
     1     1     2    1
     2     1     3    1
     3     1     5    1
     4     1     6    1
     5     2     7    1
     6     3     4    1
     7     3     8    1
     8     3     9    1
     9     4    10    1

