@<TRIPOS>MOLECULE
EDO_2_B_406
 10 9 0 0 0
SMALL
NO_CHARGES

@<TRIPOS>ATOM
      1 C1        -38.1400   61.7880   24.4690 C.3    406  EDO406      0.0000
      2 O1        -38.8470   60.8770   25.3180 O.3    406  EDO406      0.0000
      3 C2        -37.6350   61.0460   23.2380 C.3    406  EDO406      0.0000
      4 O2        -38.7410   60.4150   22.5800 O.3    406  EDO406      0.0000
      5 H         -37.2944   62.2302   25.0347 H      406  EDO406      0.0000
      6 H         -38.8148   62.6203   24.1788 H      406  EDO406      0.0000
      7 H         -39.3706   60.3264   24.7464 H      406  EDO406      0.0000
      8 H         -36.9021   60.2663   23.5323 H      406  EDO406      0.0000
      9 H         -37.1145   61.7377   22.5425 H      406  EDO406      0.0000
     10 H         -39.0800   61.0093   21.9236 H      406  EDO406      0.0000
@<TRIPOS>BOND
     1     1     2    1
     2     1     3    1
     3     1     5    1
     4     1     6    1
     5     2     7    1
     6     3     4    1
     7     3     8    1
     8     3     9    1
     9     4    10    1

