@<TRIPOS>MOLECULE
EDO_2_B_404
 10 9 0 0 0
SMALL
NO_CHARGES

@<TRIPOS>ATOM
      1 C1        -79.0200   72.8820   26.2180 C.3    404  EDO404      0.0000
      2 O1        -80.3950   72.5240   26.4010 O.3    404  EDO404      0.0000
      3 C2        -78.2660   71.7470   25.5310 C.3    404  EDO404      0.0000
      4 O2        -78.3090   70.5750   26.3540 O.3    404  EDO404      0.0000
      5 H         -78.5651   73.1199   27.2023 H      404  EDO404      0.0000
      6 H         -78.9702   73.8047   25.6037 H      404  EDO404      0.0000
      7 H         -80.4008   71.6258   26.7115 H      404  EDO404      0.0000
      8 H         -77.2119   72.0360   25.3342 H      404  EDO404      0.0000
      9 H         -78.7284   71.5148   24.5492 H      404  EDO404      0.0000
     10 H         -77.5858   70.6097   26.9663 H      404  EDO404      0.0000
@<TRIPOS>BOND
     1     1     2    1
     2     1     3    1
     3     1     5    1
     4     1     6    1
     5     2     7    1
     6     3     4    1
     7     3     8    1
     8     3     9    1
     9     4    10    1

