@<TRIPOS>MOLECULE
EDO_3_A_407
 10 9 0 0 0
SMALL
NO_CHARGES

@<TRIPOS>ATOM
      1 C1        -90.0090   67.1110  -23.5700 C.3    407  EDO407      0.0000
      2 O1        -90.7030   66.1240  -22.7980 O.3    407  EDO407      0.0000
      3 C2        -89.9470   68.4210  -22.7970 C.3    407  EDO407      0.0000
      4 O2        -89.1180   69.3410  -23.5170 O.3    407  EDO407      0.0000
      5 H         -90.5275   67.2590  -24.5409 H      407  EDO407      0.0000
      6 H         -88.9827   66.7469  -23.7892 H      407  EDO407      0.0000
      7 H         -90.7206   65.3182  -23.2971 H      407  EDO407      0.0000
      8 H         -89.5191   68.2531  -21.7860 H      407  EDO407      0.0000
      9 H         -90.9639   68.8483  -22.6700 H      407  EDO407      0.0000
     10 H         -89.0811   70.1508  -23.0255 H      407  EDO407      0.0000
@<TRIPOS>BOND
     1     1     2    1
     2     1     3    1
     3     1     5    1
     4     1     6    1
     5     2     7    1
     6     3     4    1
     7     3     8    1
     8     3     9    1
     9     4    10    1

