EDO_2_A_405
  -ISIS-            3D

 10  9  0  0  0  0  0  0  0  0  1 V2000
  -73.4920   76.9190  -33.4620 C   0  0  0  0  0
  -73.0870   75.6860  -32.8570 O   0  0  0  0  0
  -74.3780   77.6790  -32.4840 C   0  0  0  0  0
  -74.0110   77.3110  -31.1490 O   0  0  0  0  0
  -74.0216   76.7147  -34.4146 H   0  0  0  0  0
  -72.5854   77.5119  -33.7059 H   0  0  0  0  0
  -72.8483   75.8703  -31.9567 H   0  0  0  0  0
  -75.4433   77.4128  -32.6523 H   0  0  0  0  0
  -74.2782   78.7754  -32.6244 H   0  0  0  0  0
  -74.6035   77.7441  -30.5494 H   0  0  0  0  0
  1  2  1  0  0  0
  1  3  1  0  0  0
  1  5  1  0  0  0
  1  6  1  0  0  0
  2  7  1  0  0  0
  3  4  1  0  0  0
  3  8  1  0  0  0
  3  9  1  0  0  0
  4 10  1  0  0  0
M  END
$$$$
