@<TRIPOS>MOLECULE
EDO_2_B_410
 10 9 0 0 0
SMALL
NO_CHARGES

@<TRIPOS>ATOM
      1 C1        -87.7340   62.7650   40.0530 C.3    410  EDO410      0.0000
      2 O1        -88.7200   63.7820   40.2680 O.3    410  EDO410      0.0000
      3 C2        -88.2790   61.4260   40.5350 C.3    410  EDO410      0.0000
      4 O2        -87.3720   60.3760   40.1790 O.3    410  EDO410      0.0000
      5 H         -86.8123   63.0313   40.6103 H      410  EDO410      0.0000
      6 H         -87.4672   62.7206   38.9758 H      410  EDO410      0.0000
      7 H         -89.3025   63.7979   39.5201 H      410  EDO410      0.0000
      8 H         -89.2675   61.2225   40.0713 H      410  EDO410      0.0000
      9 H         -88.4217   61.4416   41.6363 H      410  EDO410      0.0000
     10 H         -87.7005   59.5639   40.5419 H      410  EDO410      0.0000
@<TRIPOS>BOND
     1     1     2    1
     2     1     3    1
     3     1     5    1
     4     1     6    1
     5     2     7    1
     6     3     4    1
     7     3     8    1
     8     3     9    1
     9     4    10    1

