@<TRIPOS>MOLECULE
EDO_3_A_402
 10 9 0 0 0
SMALL
NO_CHARGES

@<TRIPOS>ATOM
      1 C1        -87.6900   70.2800  -26.9720 C.3    402  EDO402      0.0000
      2 O1        -86.4050   70.6570  -27.4780 O.3    402  EDO402      0.0000
      3 C2        -87.6180   68.8940  -26.3370 C.3    402  EDO402      0.0000
      4 O2        -87.0520   67.9690  -27.2710 O.3    402  EDO402      0.0000
      5 H         -88.4260   70.2882  -27.8035 H      402  EDO402      0.0000
      6 H         -88.0250   71.0340  -26.2303 H      402  EDO402      0.0000
      7 H         -86.0710   69.8973  -27.9418 H      402  EDO402      0.0000
      8 H         -88.6318   68.5540  -26.0375 H      402  EDO402      0.0000
      9 H         -86.9907   68.9249  -25.4208 H      402  EDO402      0.0000
     10 H         -87.0187   67.1159  -26.8593 H      402  EDO402      0.0000
@<TRIPOS>BOND
     1     1     2    1
     2     1     3    1
     3     1     5    1
     4     1     6    1
     5     2     7    1
     6     3     4    1
     7     3     8    1
     8     3     9    1
     9     4    10    1

