EDO_3_B_410
  -ISIS-            3D

 10  9  0  0  0  0  0  0  0  0  1 V2000
  -85.9590   23.3560   40.0530 C   0  0  0  0  0
  -86.3470   21.9930   40.2680 O   0  0  0  0  0
  -84.5270   23.5530   40.5350 C   0  0  0  0  0
  -84.0710   24.8630   40.1790 O   0  0  0  0  0
  -86.6504   24.0210   40.6105 H   0  0  0  0  0
  -86.0540   23.6091   38.9758 H   0  0  0  0  0
  -86.0626   21.4792   39.5235 H   0  0  0  0  0
  -83.8564   22.7987   40.0714 H   0  0  0  0  0
  -84.4695   23.4215   41.6363 H   0  0  0  0  0
  -83.2094   24.9898   40.5538 H   0  0  0  0  0
  1  2  1  0  0  0
  1  3  1  0  0  0
  1  5  1  0  0  0
  1  6  1  0  0  0
  2  7  1  0  0  0
  3  4  1  0  0  0
  3  8  1  0  0  0
  3  9  1  0  0  0
  4 10  1  0  0  0
M  END
$$$$
