@<TRIPOS>MOLECULE
EDO_1_B_403
 10 9 0 0 0
SMALL
NO_CHARGES

@<TRIPOS>ATOM
      1 C1        -63.7470    9.3430   31.4390 C.3    403  EDO403      0.0000
      2 O1        -64.0470    9.0990   30.0610 O.3    403  EDO403      0.0000
      3 C2        -62.2840    9.7450   31.5740 C.3    403  EDO403      0.0000
      4 O2        -61.4680    8.8840   30.7710 O.3    403  EDO403      0.0000
      5 H         -63.9369    8.4094   32.0088 H      403  EDO403      0.0000
      6 H         -64.4166   10.1233   31.8581 H      403  EDO403      0.0000
      7 H         -64.5566    9.8262   29.7293 H      403  EDO403      0.0000
      8 H         -61.9517    9.6899   32.6308 H      403  EDO403      0.0000
      9 H         -62.1394   10.7929   31.2366 H      403  EDO403      0.0000
     10 H         -61.9672    8.6863   29.9863 H      403  EDO403      0.0000
@<TRIPOS>BOND
     1     1     2    1
     2     1     3    1
     3     1     5    1
     4     1     6    1
     5     2     7    1
     6     3     4    1
     7     3     8    1
     8     3     9    1
     9     4    10    1

