@<TRIPOS>MOLECULE
EDO_3_B_411
 10 9 0 0 0
SMALL
NO_CHARGES

@<TRIPOS>ATOM
      1 C1       -113.0750   40.0570   30.2650 C.3    411  EDO411      0.0000
      2 O1       -113.7970   40.0740   29.0280 O.3    411  EDO411      0.0000
      3 C2       -112.4890   41.4370   30.5470 C.3    411  EDO411      0.0000
      4 O2       -113.5330   42.3430   30.9240 O.3    411  EDO411      0.0000
      5 H        -112.2607   39.3073   30.1841 H      411  EDO411      0.0000
      6 H        -113.7411   39.7274   31.0895 H      411  EDO411      0.0000
      7 H        -114.4533   40.7556   29.1078 H      411  EDO411      0.0000
      8 H        -111.9511   41.8255   29.6567 H      411  EDO411      0.0000
      9 H        -111.7525   41.3691   31.3758 H      411  EDO411      0.0000
     10 H        -113.1419   43.1878   31.1026 H      411  EDO411      0.0000
@<TRIPOS>BOND
     1     1     2    1
     2     1     3    1
     3     1     5    1
     4     1     6    1
     5     2     7    1
     6     3     4    1
     7     3     8    1
     8     3     9    1
     9     4    10    1

