EDO_2_B_403
  -ISIS-            3D

 10  9  0  0  0  0  0  0  0  0  1 V2000
  -51.6880   70.8400   31.4390 C   0  0  0  0  0
  -51.3260   70.7020   30.0610 O   0  0  0  0  0
  -52.7670   71.9060   31.5740 C   0  0  0  0  0
  -52.4300   73.0430   30.7710 O   0  0  0  0  0
  -50.7867   71.1260   32.0212 H   0  0  0  0  0
  -52.0387   69.8635   31.8310 H   0  0  0  0  0
  -51.2742   71.5829   29.7070 H   0  0  0  0  0
  -52.8822   72.2107   32.6354 H   0  0  0  0  0
  -53.7442   71.4994   31.2362 H   0  0  0  0  0
  -53.1222   73.6842   30.8607 H   0  0  0  0  0
  1  2  1  0  0  0
  1  3  1  0  0  0
  1  5  1  0  0  0
  1  6  1  0  0  0
  2  7  1  0  0  0
  3  4  1  0  0  0
  3  8  1  0  0  0
  3  9  1  0  0  0
  4 10  1  0  0  0
M  END
$$$$
