@<TRIPOS>MOLECULE
U3P_2_A_401
 33 34 0 0 0
SMALL
NO_CHARGES

@<TRIPOS>ATOM
      1 N1        -40.3020   37.3220  -29.7870 N.ar   401  U3P401      0.0000
      2 C2        -39.5990   37.3280  -30.9780 C.ar   401  U3P401      0.0000
      3 N3        -38.3860   36.6900  -30.9340 N.ar   401  U3P401      0.0000
      4 C4        -37.8170   36.0560  -29.8460 C.ar   401  U3P401      0.0000
      5 C5        -38.6080   36.0930  -28.6500 C.ar   401  U3P401      0.0000
      6 C6        -39.7990   36.7110  -28.6630 C.ar   401  U3P401      0.0000
      7 O2        -40.0190   37.8650  -31.9960 O.2    401  U3P401      0.0000
      8 O4        -36.7130   35.5240  -29.9660 O.2    401  U3P401      0.0000
      9 P         -45.6690   38.8910  -30.9970 P.3    401  U3P401      0.0000
     10 O1P       -46.6300   39.0220  -29.8290 O.co2  401  U3P401     -0.5000
     11 O2P       -45.7510   40.0780  -31.9380 O.co2  401  U3P401     -0.5000
     12 O3P       -45.8380   37.5740  -31.7260 O.co2  401  U3P401      0.0000
     13 O5'       -42.8950   36.7320  -26.7790 O.3    401  U3P401      0.0000
     14 C5'       -43.4690   38.0270  -26.8680 C.3    401  U3P401      0.0000
     15 C4'       -43.2290   38.6470  -28.2260 C.3    401  U3P401      0.0000
     16 O4'       -41.8060   38.6170  -28.5190 O.3    401  U3P401      0.0000
     17 C3'       -43.9180   37.9560  -29.4040 C.3    401  U3P401      0.0000
     18 O3'       -44.1710   38.9370  -30.4010 O.3    401  U3P401      0.0000
     19 C2'       -42.8030   37.0480  -29.9250 C.3    401  U3P401      0.0000
     20 O2'       -42.9540   36.6380  -31.2680 O.3    401  U3P401      0.0000
     21 C1'       -41.6160   37.9970  -29.7720 C.3    401  U3P401      0.0000
     22 H         -38.2041   35.6046  -27.7494 H      401  U3P401      0.0000
     23 H         -40.4311   36.7559  -27.7650 H      401  U3P401      0.0000
     24 H         -43.0783   36.3819  -25.9173 H      401  U3P401      0.0000
     25 H         -43.0265   38.6722  -26.0791 H      401  U3P401      0.0000
     26 H         -44.5587   37.9668  -26.6629 H      401  U3P401      0.0000
     27 H         -43.5651   39.7059  -28.1816 H      401  U3P401      0.0000
     28 H         -44.8095   37.3778  -29.0892 H      401  U3P401      0.0000
     29 H         -42.6867   36.1598  -29.2702 H      401  U3P401      0.0000
     30 H         -42.1023   36.4257  -31.6296 H      401  U3P401      0.0000
     31 H         -41.6681   38.7833  -30.5564 H      401  U3P401      0.0000
     32 H         -44.8389   37.2012  -32.1121 H      401  U3P401      0.0000
     33 H         -37.8408   36.6839  -31.8070 H      401  U3P401      0.0000
@<TRIPOS>BOND
     1     1     2   ar
     2     1     6   ar
     3     1    21    1
     4     2     3   ar
     5     2     7    2
     6     3     4   ar
     7     4     5   ar
     8     4     8    2
     9     5     6   ar
    10     5    22    1
    11     6    23    1
    12     9    10   ar
    13     9    11   ar
    14     9    12    1
    15     9    18    1
    16    13    14    1
    17    13    24    1
    18    14    15    1
    19    14    25    1
    20    14    26    1
    21    15    16    1
    22    15    17    1
    23    15    27    1
    24    16    21    1
    25    17    18    1
    26    17    19    1
    27    17    28    1
    28    19    20    1
    29    19    21    1
    30    19    29    1
    31    20    30    1
    32    21    31    1
    33    12    32    1
    34     3    33    1

