@<TRIPOS>MOLECULE
U3P_1_B_401
 33 34 0 0 0
SMALL
NO_CHARGES

@<TRIPOS>ATOM
      1 N1        -41.4630   31.9910   28.7780 N.ar   401  U3P401      0.0000
      2 C2        -40.8030   31.7270   29.9650 C.ar   401  U3P401      0.0000
      3 N3        -39.4400   31.6090   29.8520 N.ar   401  U3P401      0.0000
      4 C4        -38.6870   31.7250   28.7000 C.ar   401  U3P401      0.0000
      5 C5        -39.4450   31.9970   27.5130 C.ar   401  U3P401      0.0000
      6 C6        -40.7790   32.1170   27.5920 C.ar   401  U3P401      0.0000
      7 O2        -41.3830   31.6070   31.0360 O.2    401  U3P401      0.0000
      8 O4        -37.4650   31.5930   28.7610 O.2    401  U3P401      0.0000
      9 P         -46.8170   33.4370   30.1630 P.3    401  U3P401      0.0000
     10 O1P       -47.4920   32.4780   31.1240 O.co2  401  U3P401     -0.5000
     11 O2P       -47.6920   33.7580   28.9650 O.co2  401  U3P401     -0.5000
     12 O3P       -46.3240   34.6890   30.8600 O.co2  401  U3P401      0.0000
     13 O5'       -43.4730   33.7510   25.8150 O.3    401  U3P401      0.0000
     14 C5'       -44.6580   32.9890   25.9970 C.3    401  U3P401      0.0000
     15 C4'       -44.7250   32.3640   27.3730 C.3    401  U3P401      0.0000
     16 O4'       -43.4910   31.6410   27.6330 O.3    401  U3P401      0.0000
     17 C3'       -44.8860   33.3390   28.5400 C.3    401  U3P401      0.0000
     18 O3'       -45.5280   32.6460   29.6050 O.3    401  U3P401      0.0000
     19 C2'       -43.4310   33.5600   28.9520 C.3    401  U3P401      0.0000
     20 O2'       -43.2630   34.0710   30.2580 O.3    401  U3P401      0.0000
     21 C1'       -42.9320   32.1210   28.8360 C.3    401  U3P401      0.0000
     22 H         -38.8967   32.0989   26.5634 H      401  U3P401      0.0000
     23 H         -41.3880   32.3252   26.7012 H      401  U3P401      0.0000
     24 H         -43.4913   34.1307   24.9466 H      401  U3P401      0.0000
     25 H         -44.6911   32.1904   25.2251 H      401  U3P401      0.0000
     26 H         -45.5455   33.6350   25.8290 H      401  U3P401      0.0000
     27 H         -45.5736   31.6458   27.3817 H      401  U3P401      0.0000
     28 H         -45.3703   34.2881   28.2357 H      401  U3P401      0.0000
     29 H         -42.9122   34.2174   28.2244 H      401  U3P401      0.0000
     30 H         -42.4509   33.7405   30.6233 H      401  U3P401      0.0000
     31 H         -43.3452   31.5159   29.6725 H      401  U3P401      0.0000
     32 H         -47.1972   35.2731   31.2801 H      401  U3P401      0.0000
     33 H         -38.9244   31.4116   30.7207 H      401  U3P401      0.0000
@<TRIPOS>BOND
     1     1     2   ar
     2     1     6   ar
     3     1    21    1
     4     2     3   ar
     5     2     7    2
     6     3     4   ar
     7     4     5   ar
     8     4     8    2
     9     5     6   ar
    10     5    22    1
    11     6    23    1
    12     9    10   ar
    13     9    11   ar
    14     9    12    1
    15     9    18    1
    16    13    14    1
    17    13    24    1
    18    14    15    1
    19    14    25    1
    20    14    26    1
    21    15    16    1
    22    15    17    1
    23    15    27    1
    24    16    21    1
    25    17    18    1
    26    17    19    1
    27    17    28    1
    28    19    20    1
    29    19    21    1
    30    19    29    1
    31    20    30    1
    32    21    31    1
    33    12    32    1
    34     3    33    1

