@<TRIPOS>MOLECULE
U3P_3_A_401
 33 34 0 0 0
SMALL
NO_CHARGES

@<TRIPOS>ATOM
      1 N1        -87.6410   77.1540  -29.7870 N.ar   401  U3P401      0.0000
      2 C2        -87.9980   77.7600  -30.9780 C.ar   401  U3P401      0.0000
      3 N3        -88.0510   79.1300  -30.9340 N.ar   401  U3P401      0.0000
      4 C4        -87.7870   79.9400  -29.8460 C.ar   401  U3P401      0.0000
      5 C5        -87.4230   79.2360  -28.6500 C.ar   401  U3P401      0.0000
      6 C6        -87.3630   77.8960  -28.6630 C.ar   401  U3P401      0.0000
      7 O2        -88.2520   77.1280  -31.9960 O.2    401  U3P401      0.0000
      8 O4        -87.8780   81.1610  -29.9660 O.2    401  U3P401      0.0000
      9 P         -86.3160   71.7220  -30.9970 P.3    401  U3P401      0.0000
     10 O1P       -85.9490   70.8240  -29.8290 O.co2  401  U3P401     -0.5000
     11 O2P       -87.3030   71.0570  -31.9380 O.co2  401  U3P401     -0.5000
     12 O3P       -85.0910   72.2340  -31.7260 O.co2  401  U3P401      0.0000
     13 O5'       -85.8330   75.2040  -26.7790 O.3    401  U3P401      0.0000
     14 C5'       -86.6680   74.0590  -26.8680 C.3    401  U3P401      0.0000
     15 C4'       -87.3250   73.9570  -28.2260 C.3    401  U3P401      0.0000
     16 O4'       -88.0100   75.2040  -28.5190 O.3    401  U3P401      0.0000
     17 C3'       -86.3820   73.7060  -29.4040 C.3    401  U3P401      0.0000
     18 O3'       -87.1050   72.9960  -30.4010 O.3    401  U3P401      0.0000
     19 C2'       -86.1530   75.1260  -29.9250 C.3    401  U3P401      0.0000
     20 O2'       -85.7220   75.2000  -31.2680 O.3    401  U3P401      0.0000
     21 C1'       -87.5680   75.6790  -29.7720 C.3    401  U3P401      0.0000
     22 H         -87.2017   79.8302  -27.7496 H      401  U3P401      0.0000
     23 H         -87.0856   77.3252  -27.7644 H      401  U3P401      0.0000
     24 H         -85.4742   75.2451  -25.9023 H      401  U3P401      0.0000
     25 H         -87.4486   74.1195  -26.0796 H      401  U3P401      0.0000
     26 H         -86.0706   73.1460  -26.6622 H      401  U3P401      0.0000
     27 H         -88.0743   73.1363  -28.1817 H      401  U3P401      0.0000
     28 H         -85.4353   73.2227  -29.0891 H      401  U3P401      0.0000
     29 H         -85.4526   75.6771  -29.2624 H      401  U3P401      0.0000
     30 H         -84.7747   75.2327  -31.2904 H      401  U3P401      0.0000
     31 H         -88.2207   75.2410  -30.5584 H      401  U3P401      0.0000
     32 H         -85.3289   73.2071  -32.2556 H      401  U3P401      0.0000
     33 H         -88.3163   79.6032  -31.8084 H      401  U3P401      0.0000
@<TRIPOS>BOND
     1     1     2   ar
     2     1     6   ar
     3     1    21    1
     4     2     3   ar
     5     2     7    2
     6     3     4   ar
     7     4     5   ar
     8     4     8    2
     9     5     6   ar
    10     5    22    1
    11     6    23    1
    12     9    10   ar
    13     9    11   ar
    14     9    12    1
    15     9    18    1
    16    13    14    1
    17    13    24    1
    18    14    15    1
    19    14    25    1
    20    14    26    1
    21    15    16    1
    22    15    17    1
    23    15    27    1
    24    16    21    1
    25    17    18    1
    26    17    19    1
    27    17    28    1
    28    19    20    1
    29    19    21    1
    30    19    29    1
    31    20    30    1
    32    21    31    1
    33    12    32    1
    34     3    33    1

