@<TRIPOS>MOLECULE
U3P_2_B_401
 33 34 0 0 0
SMALL
NO_CHARGES

@<TRIPOS>ATOM
      1 N1        -82.4440   78.8140   28.7780 N.ar   401  U3P401      0.0000
      2 C2        -82.5450   79.5180   29.9650 C.ar   401  U3P401      0.0000
      3 N3        -83.1240   80.7570   29.8520 N.ar   401  U3P401      0.0000
      4 C4        -83.6010   81.3510   28.7000 C.ar   401  U3P401      0.0000
      5 C5        -83.4580   80.5590   27.5130 C.ar   401  U3P401      0.0000
      6 C6        -82.8950   79.3440   27.5920 C.ar   401  U3P401      0.0000
      7 O2        -82.1510   79.0760   31.0360 O.2    401  U3P401      0.0000
      8 O4        -84.0980   82.4760   28.7610 O.2    401  U3P401      0.0000
      9 P         -81.0190   73.4550   30.1630 P.3    401  U3P401      0.0000
     10 O1P       -79.8510   73.3500   31.1240 O.co2  401  U3P401     -0.5000
     11 O2P       -80.8590   72.5360   28.9650 O.co2  401  U3P401     -0.5000
     12 O3P       -82.3500   73.2560   30.8600 O.co2  401  U3P401      0.0000
     13 O5'       -82.9630   76.1940   25.8150 O.3    401  U3P401      0.0000
     14 C5'       -81.7100   75.5480   25.9970 C.3    401  U3P401      0.0000
     15 C4'       -81.1360   75.8030   27.3730 C.3    401  U3P401      0.0000
     16 O4'       -81.1260   77.2330   27.6330 O.3    401  U3P401      0.0000
     17 C3'       -81.8990   75.1760   28.5400 C.3    401  U3P401      0.0000
     18 O3'       -80.9780   74.9660   29.6050 O.3    401  U3P401      0.0000
     19 C2'       -82.8180   76.3260   28.9520 C.3    401  U3P401      0.0000
     20 O2'       -83.3450   76.2160   30.2580 O.3    401  U3P401      0.0000
     21 C1'       -81.8220   77.4770   28.8360 C.3    401  U3P401      0.0000
     22 H         -83.8205   80.9831   26.5635 H      401  U3P401      0.0000
     23 H         -82.7706   78.7126   26.7011 H      401  U3P401      0.0000
     24 H         -83.2820   75.9894   24.9461 H      401  U3P401      0.0000
     25 H         -81.0017   75.9186   25.2252 H      401  U3P401      0.0000
     26 H         -81.8259   74.4564   25.8290 H      401  U3P401      0.0000
     27 H         -80.0897   75.4270   27.3817 H      401  U3P401      0.0000
     28 H         -82.4789   74.2823   28.2348 H      401  U3P401      0.0000
     29 H         -83.6467   76.4463   28.2243 H      401  U3P401      0.0000
     30 H         -83.4703   77.0849   30.6207 H      401  U3P401      0.0000
     31 H         -81.0916   77.4217   29.6727 H      401  U3P401      0.0000
     32 H         -82.8254   74.2562   31.1063 H      401  U3P401      0.0000
     33 H         -83.2107   81.3023   30.7206 H      401  U3P401      0.0000
@<TRIPOS>BOND
     1     1     2   ar
     2     1     6   ar
     3     1    21    1
     4     2     3   ar
     5     2     7    2
     6     3     4   ar
     7     4     5   ar
     8     4     8    2
     9     5     6   ar
    10     5    22    1
    11     6    23    1
    12     9    10   ar
    13     9    11   ar
    14     9    12    1
    15     9    18    1
    16    13    14    1
    17    13    24    1
    18    14    15    1
    19    14    25    1
    20    14    26    1
    21    15    16    1
    22    15    17    1
    23    15    27    1
    24    16    21    1
    25    17    18    1
    26    17    19    1
    27    17    28    1
    28    19    20    1
    29    19    21    1
    30    19    29    1
    31    20    30    1
    32    21    31    1
    33    12    32    1
    34     3    33    1

