TFA_1_A_201
  -ISIS-            3D

  7  6  0  0  0  0  0  0  0  0  1 V2000
  -43.0500  -32.1550    2.1310 C   0  0  0  0  0
  -42.5460  -31.5770    0.7680 C   0  0  0  0  0
  -43.5460  -33.2310    2.0590 O   0  0  0  0  0
  -41.2670  -31.5100    0.7430 F   0  0  0  0  0
  -42.8640  -32.2420   -0.2330 F   0  0  0  0  0
  -42.9700  -30.4350    0.5380 F   0  0  0  0  0
  -42.7990  -31.4900    3.1310 O   0  0  0  0  0
  1  2  1  0  0  0
  1  3  1  0  0  0
  1  7  2  0  0  0
  2  4  1  0  0  0
  2  5  1  0  0  0
  2  6  1  0  0  0
M  END
$$$$
