@<TRIPOS>MOLECULE
TFA_1_A_201
 7 6 0 0 0
SMALL
NO_CHARGES

@<TRIPOS>ATOM
      1 C1        -43.0500  -32.1550    2.1310 C.2    201  TFA201      0.0000
      2 C2        -42.5460  -31.5770    0.7680 C.3    201  TFA201      0.0000
      3 O         -43.5460  -33.2310    2.0590 O.co2  201  TFA201      0.0000
      4 F1        -41.2670  -31.5100    0.7430 F      201  TFA201      0.0000
      5 F2        -42.8640  -32.2420   -0.2330 F      201  TFA201      0.0000
      6 F3        -42.9700  -30.4350    0.5380 F      201  TFA201      0.0000
      7 OXT       -42.7990  -31.4900    3.1310 O.co2  201  TFA201      0.0000
@<TRIPOS>BOND
     1     1     2    1
     2     1     3    1
     3     1     7    2
     4     2     4    1
     5     2     5    1
     6     2     6    1

