@<TRIPOS>MOLECULE
NHE_1_A_403
 30 30 0 0 0
SMALL
NO_CHARGES

@<TRIPOS>ATOM
      1 C3'        31.0750  -25.5440   24.7170 C.3    403  NHE403      0.0000
      2 C2'        30.9260  -26.1400   23.3170 C.3    403  NHE403      0.0000
      3 C1'        30.6060  -27.6400   23.2110 C.3    403  NHE403      0.0000
      4 C6'        29.8760  -28.2730   24.4070 C.3    403  NHE403      0.0000
      5 N          29.9330  -28.0270   21.9710 N.pl3  403  NHE403      0.0000
      6 C1         30.0010  -27.2130   20.7500 C.3    403  NHE403      0.0000
      7 C2         29.7900  -27.9800   19.4400 C.3    403  NHE403      0.0000
      8 S          30.4950  -27.3290   18.0970 S.3    403  NHE403      0.0000
      9 O1         31.6890  -26.6140   18.3130 O.co2  403  NHE403      0.0000
     10 O2         30.3010  -28.1260   16.9520 O.co2  403  NHE403      0.0000
     11 O3         29.4840  -26.1030   17.8390 O.co2  403  NHE403      0.0000
     12 C5'        29.8370  -27.4760   25.7080 C.3    403  NHE403      0.0000
     13 C4'        31.0340  -26.5570   25.8580 C.3    403  NHE403      0.0000
     14 H          30.2608  -24.7986   24.8795 H      403  NHE403      0.0000
     15 H          32.0257  -24.9645   24.7769 H      403  NHE403      0.0000
     16 H          31.8465  -25.9169   22.7288 H      403  NHE403      0.0000
     17 H          30.1081  -25.5711   22.8176 H      403  NHE403      0.0000
     18 H          31.6142  -28.1281   23.1902 H      403  NHE403      0.0000
     19 H          30.3340  -29.2695   24.6111 H      403  NHE403      0.0000
     20 H          28.8222  -28.4925   24.1156 H      403  NHE403      0.0000
     21 H          30.1155  -29.0068   21.7689 H      403  NHE403      0.0000
     22 H          31.0044  -26.7353   20.7169 H      403  NHE403      0.0000
     23 H          29.2599  -26.3867   20.8195 H      403  NHE403      0.0000
     24 H          28.7106  -28.1316   19.2304 H      403  NHE403      0.0000
     25 H          30.2366  -28.9935   19.5251 H      403  NHE403      0.0000
     26 H          29.8153  -25.4341   16.7684 H      403  NHE403      0.0000
     27 H          29.7736  -28.1708   26.5773 H      403  NHE403      0.0000
     28 H          28.9073  -26.8604   25.7346 H      403  NHE403      0.0000
     29 H          30.9927  -26.0262   26.8373 H      403  NHE403      0.0000
     30 H          31.9711  -27.1605   25.8603 H      403  NHE403      0.0000
@<TRIPOS>BOND
     1     1     2    1
     2     1    13    1
     3     1    14    1
     4     1    15    1
     5     2     3    1
     6     2    16    1
     7     2    17    1
     8     3     4    1
     9     3     5    1
    10     3    18    1
    11     4    12    1
    12     4    19    1
    13     4    20    1
    14     5     6    1
    15     5    21    1
    16     6     7    1
    17     6    22    1
    18     6    23    1
    19     7     8    1
    20     7    24    1
    21     7    25    1
    22     8     9    2
    23     8    10    2
    24     8    11    1
    25    11    26    1
    26    12    13    1
    27    12    27    1
    28    12    28    1
    29    13    29    1
    30    13    30    1

