@<TRIPOS>MOLECULE
DMS_2_A_405
 10 9 0 0 0
SMALL
NO_CHARGES

@<TRIPOS>ATOM
      1 S          -8.6170   -4.5060  -25.8120 S.o    405  DMS405      0.0000
      2 O          -9.1890   -3.1390  -26.0000 O.2    405  DMS405      0.0000
      3 C1         -9.9630   -5.5330  -25.3080 C.3    405  DMS405      0.0000
      4 C2         -8.3890   -5.1640  -27.4330 C.3    405  DMS405      0.0000
      5 H          -9.6406   -6.5941  -25.2878 H      405  DMS405      0.0000
      6 H         -10.8191   -5.4208  -26.0046 H      405  DMS405      0.0000
      7 H         -10.2873   -5.2393  -24.2887 H      405  DMS405      0.0000
      8 H          -8.0996   -6.2329  -27.3689 H      405  DMS405      0.0000
      9 H          -7.5792   -4.6055  -27.9456 H      405  DMS405      0.0000
     10 H          -9.3222   -5.0696  -28.0254 H      405  DMS405      0.0000
@<TRIPOS>BOND
     1     1     2    2
     2     1     3    1
     3     1     4    1
     4     3     5    1
     5     3     6    1
     6     3     7    1
     7     4     8    1
     8     4     9    1
     9     4    10    1

