DMS_1_A_401
  -ISIS-            3D

 10  9  0  0  0  0  0  0  0  0  1 V2000
    6.8360  -28.0630   21.5770 S   0  0  0  0  0
    7.6390  -27.1940   22.4780 O   0  0  0  0  0
    5.5550  -28.8040   22.5750 C   0  0  0  0  0
    5.7920  -26.9790   20.6580 C   0  0  0  0  0
    4.8394  -29.3488   21.9257 H   0  0  0  0  0
    5.0146  -28.0256   23.1517 H   0  0  0  0  0
    6.0147  -29.5235   23.2833 H   0  0  0  0  0
    5.0663  -27.5686   20.0612 H   0  0  0  0  0
    6.4114  -26.3723   19.9659 H   0  0  0  0  0
    5.2424  -26.2974   21.3389 H   0  0  0  0  0
  1  2  2  0  0  0
  1  3  1  0  0  0
  1  4  1  0  0  0
  3  5  1  0  0  0
  3  6  1  0  0  0
  3  7  1  0  0  0
  4  8  1  0  0  0
  4  9  1  0  0  0
  4 10  1  0  0  0
M  END
$$$$
