@<TRIPOS>MOLECULE
DMS_1_A_402
 10 9 0 0 0
SMALL
NO_CHARGES

@<TRIPOS>ATOM
      1 S           6.0470   -1.1440   -6.2470 S.o    402  DMS402      0.0000
      2 O           7.0260   -0.8460   -7.3260 O.2    402  DMS402      0.0000
      3 C1          6.9610   -1.1470   -4.7270 C.3    402  DMS402      0.0000
      4 C2          5.7300   -2.8730   -6.3160 C.3    402  DMS402      0.0000
      5 H           6.3138   -1.4989   -3.8978 H      402  DMS402      0.0000
      6 H           7.3003   -0.1153   -4.5015 H      402  DMS402      0.0000
      7 H           7.8485   -1.8076   -4.8092 H      402  DMS402      0.0000
      8 H           5.1143   -3.1802   -5.4461 H      402  DMS402      0.0000
      9 H           6.6814   -3.4437   -6.3142 H      402  DMS402      0.0000
     10 H           5.1730   -3.1076   -7.2461 H      402  DMS402      0.0000
@<TRIPOS>BOND
     1     1     2    2
     2     1     3    1
     3     1     4    1
     4     3     5    1
     5     3     6    1
     6     3     7    1
     7     4     8    1
     8     4     9    1
     9     4    10    1

