@<TRIPOS>MOLECULE
DMS_2_A_403
 10 9 0 0 0
SMALL
NO_CHARGES

@<TRIPOS>ATOM
      1 S          -2.3250  -19.2190   -8.0830 S.o    403  DMS403      0.0000
      2 O          -3.6590  -18.8110   -8.6500 O.2    403  DMS403      0.0000
      3 C1         -1.1250  -18.2080   -8.9300 C.3    403  DMS403      0.0000
      4 C2         -1.9500  -20.7670   -8.9150 C.3    403  DMS403      0.0000
      5 H          -0.1016  -18.5685   -8.7000 H      403  DMS403      0.0000
      6 H          -1.2217  -17.1585   -8.5841 H      403  DMS403      0.0000
      7 H          -1.2927  -18.2447  -10.0260 H      403  DMS403      0.0000
      8 H          -0.9069  -21.0695   -8.6898 H      403  DMS403      0.0000
      9 H          -2.0754  -20.6559  -10.0116 H      403  DMS403      0.0000
     10 H          -2.6398  -21.5546   -8.5486 H      403  DMS403      0.0000
@<TRIPOS>BOND
     1     1     2    2
     2     1     3    1
     3     1     4    1
     4     3     5    1
     5     3     6    1
     6     3     7    1
     7     4     8    1
     8     4     9    1
     9     4    10    1

