@<TRIPOS>MOLECULE
MGP_1_A_7104
 50 52 0 0 0
SMALL
NO_CHARGES

@<TRIPOS>ATOM
      1 PA         70.9970  -40.9160   19.9160 P.3   7104  MGP7104      0.0000
      2 O1A        71.2540  -41.7550   21.1240 O.co2 7104  MGP7104      0.0000
      3 O2A        71.9980  -39.8560   19.5880 O.co2 7104  MGP7104      0.0000
      4 O3A        70.8280  -41.8810   18.6430 O.3   7104  MGP7104      0.0000
      5 O5'        69.5330  -40.2510   20.0220 O.3   7104  MGP7104      0.0000
      6 PB         71.0670  -43.4530   18.4500 P.3   7104  MGP7104      0.0000
      7 O1B        69.7920  -44.1590   18.7610 O.co2 7104  MGP7104      0.0000
      8 O2B        72.3160  -43.8430   19.1760 O.co2 7104  MGP7104      0.0000
      9 O3B        71.3220  -43.5180   16.8660 O.3   7104  MGP7104      0.0000
     10 PC         72.2810  -44.3790   15.8730 P.3   7104  MGP7104      0.0000
     11 O1C        73.6790  -43.8430   16.0780 O.co2 7104  MGP7104     -0.5000
     12 O2C        71.7690  -44.1390   14.4710 O.co2 7104  MGP7104     -0.5000
     13 O3C        72.1420  -45.8220   16.2980 O.co2 7104  MGP7104      0.0000
     14 C5'        68.3310  -40.9890   19.6640 C.3   7104  MGP7104      0.0000
     15 C4'        67.4030  -40.0990   18.8710 C.3   7104  MGP7104      0.0000
     16 O4'        67.5600  -38.7210   19.3050 O.3   7104  MGP7104      0.0000
     17 C3'        67.6530  -40.0110   17.3570 C.3   7104  MGP7104      0.0000
     18 O3'        67.2050  -41.1470   16.6280 O.3   7104  MGP7104      0.0000
     19 C2'        66.8980  -38.7330   17.0500 C.3   7104  MGP7104      0.0000
     20 O2'        65.4990  -38.8390   17.1890 O.3   7104  MGP7104      0.0000
     21 C1'        67.3730  -37.8540   18.1930 C.3   7104  MGP7104      0.0000
     22 N9         68.6040  -37.1050   17.8550 N.ar  7104  MGP7104      0.0000
     23 C8         69.8400  -37.3370   18.2970 C.ar  7104  MGP7104      0.0000
     24 N7         70.7100  -36.8060   17.4430 N.ar  7104  MGP7104      0.0000
     25 CM7        72.1340  -37.1430   17.3620 C.3   7104  MGP7104      0.0000
     26 C5         70.0160  -35.8710   16.6750 C.ar  7104  MGP7104      0.0000
     27 C6         70.4410  -34.8800   15.7910 C.ar  7104  MGP7104      0.0000
     28 O6         71.5860  -34.5980   15.4530 O.2   7104  MGP7104      0.0000
     29 N1         69.3620  -34.1770   15.2860 N.ar  7104  MGP7104      0.0000
     30 C2         68.0440  -34.4000   15.5890 C.ar  7104  MGP7104      0.0000
     31 N2         67.1390  -33.6150   14.9930 N.pl3 7104  MGP7104      0.0000
     32 N3         67.6550  -35.3440   16.4260 N.ar  7104  MGP7104      0.0000
     33 C4         68.6800  -36.0510   16.9550 C.ar  7104  MGP7104      0.0000
     34 H          67.8345  -41.3014   20.6068 H     7104  MGP7104      0.0000
     35 H          68.5397  -41.9153   19.0991 H     7104  MGP7104      0.0000
     36 H          66.3586  -40.4309   19.0540 H     7104  MGP7104      0.0000
     37 H          68.7374  -39.8684   17.1629 H     7104  MGP7104      0.0000
     38 H          66.3008  -40.9843   16.3872 H     7104  MGP7104      0.0000
     39 H          67.1525  -38.3228   16.0528 H     7104  MGP7104      0.0000
     40 H          65.2421  -38.7864   18.1003 H     7104  MGP7104      0.0000
     41 H          66.6171  -37.0817   18.4533 H     7104  MGP7104      0.0000
     42 H          70.1826  -38.0774   19.0265 H     7104  MGP7104      0.0000
     43 H          72.5826  -36.8399   16.3918 H     7104  MGP7104      0.0000
     44 H          72.2982  -38.2378   17.4621 H     7104  MGP7104      0.0000
     45 H          72.7077  -36.6385   18.1703 H     7104  MGP7104      0.0000
     46 H          66.1650  -33.8179   15.2475 H     7104  MGP7104      0.0000
     47 H          67.4456  -32.8827   14.3413 H     7104  MGP7104      0.0000
     48 H          69.5212  -33.4119   14.6209 H     7104  MGP7104      0.0000
     49 H          71.3157  -41.1035   22.0469 H     7104  MGP7104      0.0000
     50 H          72.7902  -46.4867   15.6513 H     7104  MGP7104      0.0000
@<TRIPOS>BOND
     1     1     2    1
     2     1     3    2
     3     1     4    1
     4     1     5    1
     5     4     6    1
     6     5    14    1
     7     6     7    2
     8     6     8    2
     9     6     9    1
    10     9    10    1
    11    10    11   ar
    12    10    12   ar
    13    10    13    1
    14    14    15    1
    15    14    34    1
    16    14    35    1
    17    15    16    1
    18    15    17    1
    19    15    36    1
    20    16    21    1
    21    17    18    1
    22    17    19    1
    23    17    37    1
    24    18    38    1
    25    19    20    1
    26    19    21    1
    27    19    39    1
    28    20    40    1
    29    21    22    1
    30    21    41    1
    31    22    23   ar
    32    22    33   ar
    33    23    24   ar
    34    23    42    1
    35    24    25    1
    36    24    26   ar
    37    25    43    1
    38    25    44    1
    39    25    45    1
    40    26    27   ar
    41    26    33   ar
    42    27    28    2
    43    27    29   ar
    44    29    30   ar
    45    29    48    1
    46    30    31    1
    47    30    32   ar
    48    31    46    1
    49    31    47    1
    50    32    33   ar
    51     2    49    1
    52    13    50    1

