DMS_1_A_401
  -ISIS-            3D

 10  9  0  0  0  0  0  0  0  0  1 V2000
    6.8820  -28.1250   21.4720 S   0  0  0  0  0
    7.6740  -27.2060   22.3160 O   0  0  0  0  0
    5.9550  -27.1380   20.3700 C   0  0  0  0  0
    5.5810  -28.7520   22.4970 C   0  0  0  0  0
    5.2510  -27.7736   19.7950 H   0  0  0  0  0
    6.6408  -26.6328   19.6595 H   0  0  0  0  0
    5.3823  -26.3683   20.9270 H   0  0  0  0  0
    4.8825  -29.3604   21.8870 H   0  0  0  0  0
    5.0254  -27.9158   22.9691 H   0  0  0  0  0
    6.0149  -29.3929   23.2916 H   0  0  0  0  0
  1  2  2  0  0  0
  1  3  1  0  0  0
  1  4  1  0  0  0
  3  5  1  0  0  0
  3  6  1  0  0  0
  3  7  1  0  0  0
  4  8  1  0  0  0
  4  9  1  0  0  0
  4 10  1  0  0  0
M  END
$$$$
