@<TRIPOS>MOLECULE
DMS_2_A_403
 10 9 0 0 0
SMALL
NO_CHARGES

@<TRIPOS>ATOM
      1 S          -6.2610   -1.0760    6.3230 S.o    403  DMS403      0.0000
      2 O          -5.9580   -2.5330    6.3600 O.2    403  DMS403      0.0000
      3 C1         -7.0220   -0.7250    7.8580 C.3    403  DMS403      0.0000
      4 C2         -7.5960   -0.8940    5.1750 C.3    403  DMS403      0.0000
      5 H          -7.3962    0.3191    7.8611 H      403  DMS403      0.0000
      6 H          -6.2821   -0.8433    8.6759 H      403  DMS403      0.0000
      7 H          -7.8707   -1.4174    8.0343 H      403  DMS403      0.0000
      8 H          -7.9640    0.1522    5.1928 H      403  DMS403      0.0000
      9 H          -8.4262   -1.5798    5.4416 H      403  DMS403      0.0000
     10 H          -7.2401   -1.1339    4.1522 H      403  DMS403      0.0000
@<TRIPOS>BOND
     1     1     2    2
     2     1     3    1
     3     1     4    1
     4     3     5    1
     5     3     6    1
     6     3     7    1
     7     4     8    1
     8     4     9    1
     9     4    10    1

