6P3_1_A_201
  -ISIS-            3D

 23 24  0  0  0  0  0  0  0  0  1 V2000
    9.9670    5.7610   19.5890 C   0  0  0  0  0
    9.0260    6.6170   19.0640 C   0  0  0  0  0
    8.7930    7.8410   19.6690 C   0  0  0  0  0
    9.5050    8.2450   20.7860 C   0  0  0  0  0
   10.4660    7.4100   21.2940 C   0  0  0  0  0
   10.6980    6.1900   20.6990 C   0  0  0  0  0
   10.2730    4.4040   18.9420 C   0  0  0  0  0
   10.2220    4.2480   17.6300 N   0  0  0  0  0
   10.5060    3.1090   17.0240 C   0  0  0  0  0
   10.8460    1.9890   17.7780 C   0  0  0  0  0
   10.9140    2.1000   19.1490 C   0  0  0  0  0
   10.6130    3.3160   19.7170 C   0  0  0  0  0
   11.2120    0.6560   17.1180 C   0  0  0  0  0
   11.4840    0.6070   15.8880 O   0  0  0  0  0
   11.3470   -0.3900   17.7990 O   0  0  0  0  0
    8.4523    6.3284   18.1674 H   0  0  0  0  0
    8.0239    8.5120   19.2483 H   0  0  0  0  0
    9.3048    9.2234   21.2544 H   0  0  0  0  0
   11.0535    7.7165   22.1764 H   0  0  0  0  0
   11.4884    5.5455   21.1196 H   0  0  0  0  0
   10.4577    3.0696   15.9239 H   0  0  0  0  0
   11.1975    1.2452   19.7847 H   0  0  0  0  0
   10.6493    3.4092   20.8148 H   0  0  0  0  0
  1  2  2  0  0  0
  1  6  1  0  0  0
  1  7  1  0  0  0
  2  3  1  0  0  0
  2 16  1  0  0  0
  3  4  2  0  0  0
  3 17  1  0  0  0
  4  5  1  0  0  0
  4 18  1  0  0  0
  5  6  2  0  0  0
  5 19  1  0  0  0
  6 20  1  0  0  0
  7  8  2  0  0  0
  7 12  1  0  0  0
  8  9  1  0  0  0
  9 10  2  0  0  0
  9 21  1  0  0  0
 10 11  1  0  0  0
 10 13  1  0  0  0
 11 12  2  0  0  0
 11 22  1  0  0  0
 12 23  1  0  0  0
 13 14  2  0  0  0
 13 15  2  0  0  0
M  END
$$$$
