GTA_1_A_7102
  -ISIS-            3D

 79 84  0  0  0  0  0  0  0  0  1 V2000
   82.8400   30.7780   45.3210 N   0  0  0  0  0
   85.1880   31.9580   41.5740 O   0  0  0  0  0
   84.8070   31.0420   42.2920 C   0  0  0  0  0
   85.0430   29.6770   42.1490 C   0  0  0  0  0
   85.7510   28.9400   41.1970 N   0  0  0  0  0
   86.4350   29.4690   40.0190 C   0  0  0  0  0
   85.7050   27.6560   41.5490 C   0  0  0  0  0
   84.9580   27.5080   42.6220 N   0  0  0  0  0
   84.5420   28.7710   43.0470 C   0  0  0  0  0
   83.8000   29.0480   44.1350 N   0  0  0  0  0
   83.5690   30.3420   44.2890 C   0  0  0  0  0
   84.0440   31.2910   43.4190 N   0  0  0  0  0
   82.7890   23.7270   41.7470 O   0  0  0  0  0
   84.8170   26.2710   43.4200 C   0  0  0  0  0
   83.4500   25.6510   43.1790 C   0  0  0  0  0
   83.7480   24.7440   41.9990 C   0  0  0  0  0
   85.1020   24.1670   42.4260 C   0  0  0  0  0
   85.9610   23.6030   41.3160 C   0  0  0  0  0
   85.7760   25.2960   43.0510 O   0  0  0  0  0
   83.0650   24.9390   44.3420 O   0  0  0  0  0
   86.4130   24.2260   38.7840 P   0  0  0  0  0
   87.8380   23.8890   38.5090 O   0  0  0  0  0
   85.3690   23.2400   38.4100 O   0  0  0  0  0
   86.0810   25.6290   38.0790 O   0  0  0  0  0
   86.2380   24.6360   40.3300 O   0  0  0  0  0
   84.7360   26.4650   37.8390 P   0  0  0  0  0
   85.1200   27.8330   37.3760 O   0  0  0  0  0
   83.8240   26.3210   39.0110 O   0  0  0  0  0
   84.0870   25.6390   36.6360 O   0  0  0  0  0
   82.5890   25.6540   36.0740 P   0  0  0  0  0
   82.2510   27.0460   35.6440 O   0  0  0  0  0
   81.6800   24.9810   37.0460 O   0  0  0  0  0
   82.7540   24.7140   34.7970 O   0  0  0  0  0
   83.4360   25.2020   33.6260 C   0  0  0  0  0
   83.1140   24.2830   32.4770 C   0  0  0  0  0
   83.5250   22.9370   32.8200 O   0  0  0  0  0
   81.6280   24.1480   32.1260 C   0  0  0  0  0
   81.1950   25.2200   31.2980 O   0  0  0  0  0
   81.6150   22.7880   31.4260 C   0  0  0  0  0
   82.0460   22.8550   30.0840 O   0  0  0  0  0
   82.6120   22.0050   32.2800 C   0  0  0  0  0
   81.9830   21.2710   33.3760 N   0  0  0  0  0
   81.8080   21.6710   34.6810 C   0  0  0  0  0
   81.1930   20.7660   35.4070 N   0  0  0  0  0
   80.9500   19.7160   34.5300 C   0  0  0  0  0
   80.3300   18.4620   34.6930 C   0  0  0  0  0
   79.8190   18.0350   35.8430 N   0  0  0  0  0
   80.2540   17.6570   33.6050 N   0  0  0  0  0
   80.7720   18.0940   32.4480 C   0  0  0  0  0
   81.3780   19.2490   32.1790 N   0  0  0  0  0
   81.4340   20.0220   33.2760 C   0  0  0  0  0
   86.9712   28.6508   39.4903 H   0  0  0  0  0
   87.1716   30.2394   40.3361 H   0  0  0  0  0
   85.6870   29.9253   39.3342 H   0  0  0  0  0
   86.2022   26.8096   41.0670 H   0  0  0  0  0
   82.2451   24.0016   41.0203 H   0  0  0  0  0
   84.9499   26.5316   44.4917 H   0  0  0  0  0
   82.6796   26.4092   42.9295 H   0  0  0  0  0
   83.8832   25.3647   41.0925 H   0  0  0  0  0
   84.9415   23.3797   43.1942 H   0  0  0  0  0
   85.4419   22.7373   40.8559 H   0  0  0  0  0
   86.9228   23.2281   41.7240 H   0  0  0  0  0
   82.4486   24.2717   44.0643 H   0  0  0  0  0
   84.5302   25.2271   33.8120 H   0  0  0  0  0
   83.1097   26.2333   33.3778 H   0  0  0  0  0
   83.6803   24.6071   31.5770 H   0  0  0  0  0
   81.0061   24.1104   33.0440 H   0  0  0  0  0
   81.3669   24.9569   30.4007 H   0  0  0  0  0
   80.5995   22.3401   31.4723 H   0  0  0  0  0
   81.8538   22.0275   29.6633 H   0  0  0  0  0
   83.1637   21.2624   31.6657 H   0  0  0  0  0
   82.1075   22.5976   35.1761 H   0  0  0  0  0
   80.6826   17.3959   31.5978 H   0  0  0  0  0
   82.6612   31.7832   45.4334 H   0  0  0  0  0
   82.5025   30.0371   45.9470 H   0  0  0  0  0
   79.3941   17.0998   35.8176 H   0  0  0  0  0
   79.8888   18.6641   36.6530 H   0  0  0  0  0
   83.7895   32.2558   43.6584 H   0  0  0  0  0
   87.9816   23.6689   37.4086 H   0  0  0  0  0
  1 11  1  0  0  0
  1 74  1  0  0  0
  1 75  1  0  0  0
  2  3  2  0  0  0
  3  4  1  0  0  0
  3 12  1  0  0  0
  4  5  1  0  0  0
  4  9  2  0  0  0
  5  6  1  0  0  0
  5  7  1  0  0  0
  6 52  1  0  0  0
  6 53  1  0  0  0
  6 54  1  0  0  0
  7  8  1  0  0  0
  7 55  1  0  0  0
  8  9  1  0  0  0
  8 14  1  0  0  0
  9 10  1  0  0  0
 10 11  2  0  0  0
 11 12  1  0  0  0
 12 78  1  0  0  0
 13 16  1  0  0  0
 13 56  1  0  0  0
 14 15  1  0  0  0
 14 19  1  0  0  0
 14 57  1  0  0  0
 15 16  1  0  0  0
 15 20  1  0  0  0
 15 58  1  0  0  0
 16 17  1  0  0  0
 16 59  1  0  0  0
 17 18  1  0  0  0
 17 19  1  0  0  0
 17 60  1  0  0  0
 18 25  1  0  0  0
 18 61  1  0  0  0
 18 62  1  0  0  0
 20 63  1  0  0  0
 21 22  1  0  0  0
 21 23  2  0  0  0
 21 24  1  0  0  0
 21 25  1  0  0  0
 24 26  1  0  0  0
 26 27  2  0  0  0
 26 28  2  0  0  0
 26 29  1  0  0  0
 29 30  1  0  0  0
 30 31  2  0  0  0
 30 32  2  0  0  0
 30 33  1  0  0  0
 33 34  1  0  0  0
 34 35  1  0  0  0
 34 64  1  0  0  0
 34 65  1  0  0  0
 35 36  1  0  0  0
 35 37  1  0  0  0
 35 66  1  0  0  0
 36 41  1  0  0  0
 37 38  1  0  0  0
 37 39  1  0  0  0
 37 67  1  0  0  0
 38 68  1  0  0  0
 39 40  1  0  0  0
 39 41  1  0  0  0
 39 69  1  0  0  0
 40 70  1  0  0  0
 41 42  1  0  0  0
 41 71  1  0  0  0
 42 43  1  0  0  0
 42 51  1  0  0  0
 43 44  2  0  0  0
 43 72  1  0  0  0
 44 45  1  0  0  0
 45 46  2  0  0  0
 45 51  1  0  0  0
 46 47  1  0  0  0
 46 48  1  0  0  0
 47 76  1  0  0  0
 47 77  1  0  0  0
 48 49  2  0  0  0
 49 50  1  0  0  0
 49 73  1  0  0  0
 50 51  2  0  0  0
 22 79  1  0  0  0
M  END
$$$$
