@<TRIPOS>MOLECULE
EDO_1_A_1003
 10 9 0 0 0
SMALL
NO_CHARGES

@<TRIPOS>ATOM
      1 C1        -39.8880  -40.0520   28.1870 C.3   1003  EDO1003      0.0000
      2 O1        -39.4060  -41.3790   28.4250 O.3   1003  EDO1003      0.0000
      3 C2        -39.4750  -39.1510   29.3430 C.3   1003  EDO1003      0.0000
      4 O2        -38.0500  -39.0170   29.3600 O.3   1003  EDO1003      0.0000
      5 H         -40.9949  -40.0733   28.0986 H     1003  EDO1003      0.0000
      6 H         -39.4830  -39.6687   27.2268 H     1003  EDO1003      0.0000
      7 H         -39.6773  -41.9270   27.7007 H     1003  EDO1003      0.0000
      8 H         -39.8266  -39.5595   30.3135 H     1003  EDO1003      0.0000
      9 H         -39.9256  -38.1437   29.2274 H     1003  EDO1003      0.0000
     10 H         -37.6993  -39.9001   29.3568 H     1003  EDO1003      0.0000
@<TRIPOS>BOND
     1     1     2    1
     2     1     3    1
     3     1     5    1
     4     1     6    1
     5     2     7    1
     6     3     4    1
     7     3     8    1
     8     3     9    1
     9     4    10    1

