EDO_1_H_303
  -ISIS-            3D

 10  9  0  0  0  0  0  0  0  0  1 V2000
  -30.2300   34.0660   41.8530 C   0  0  0  0  0
  -30.8070   34.7410   40.7290 O   0  0  0  0  0
  -28.8240   33.5930   41.5030 C   0  0  0  0  0
  -28.8790   32.6830   40.3970 O   0  0  0  0  0
  -30.8682   33.2031   42.1386 H   0  0  0  0  0
  -30.1944   34.7567   42.7219 H   0  0  0  0  0
  -31.6757   35.0317   40.9724 H   0  0  0  0  0
  -28.3596   33.0784   42.3693 H   0  0  0  0  0
  -28.1722   34.4535   41.2434 H   0  0  0  0  0
  -29.4103   33.1063   39.7323 H   0  0  0  0  0
  1  2  1  0  0  0
  1  3  1  0  0  0
  1  5  1  0  0  0
  1  6  1  0  0  0
  2  7  1  0  0  0
  3  4  1  0  0  0
  3  8  1  0  0  0
  3  9  1  0  0  0
  4 10  1  0  0  0
M  END
$$$$
