@<TRIPOS>MOLECULE
PGE_1_L_302
 24 23 0 0 0
SMALL
NO_CHARGES

@<TRIPOS>ATOM
      1 C1        -31.5730   52.1260   40.5770 C.3    302  PGE302      0.0000
      2 O1        -32.8430   52.3500   39.9800 O.3    302  PGE302      0.0000
      3 C2        -31.6100   52.6350   42.0020 C.3    302  PGE302      0.0000
      4 O2        -30.5930   52.0150   42.7640 O.3    302  PGE302      0.0000
      5 C3        -30.9210   51.8890   44.1340 C.3    302  PGE302      0.0000
      6 C4        -31.3820   50.4670   44.3890 C.3    302  PGE302      0.0000
      7 O4        -35.1920   49.5730   43.8520 O.3    302  PGE302      0.0000
      8 C6        -34.2760   50.5360   43.3510 C.3    302  PGE302      0.0000
      9 C5        -33.6280   51.2630   44.5130 C.3    302  PGE302      0.0000
     10 O3        -32.6180   50.4500   45.0820 O.3    302  PGE302      0.0000
     11 H         -30.7771   52.6362   39.9953 H      302  PGE302      0.0000
     12 H         -31.3562   51.0365   40.5627 H      302  PGE302      0.0000
     13 H         -32.8177   52.0203   39.0917 H      302  PGE302      0.0000
     14 H         -32.6063   52.4051   42.4154 H      302  PGE302      0.0000
     15 H         -31.4896   53.7374   42.0369 H      302  PGE302      0.0000
     16 H         -31.5511   52.7187   44.4959 H      302  PGE302      0.0000
     17 H         -29.9746   52.0303   44.6986 H      302  PGE302      0.0000
     18 H         -30.6331   49.9198   44.9981 H      302  PGE302      0.0000
     19 H         -31.4778   49.8952   43.4442 H      302  PGE302      0.0000
     20 H         -34.6960   48.9625   44.3836 H      302  PGE302      0.0000
     21 H         -34.8475   51.2576   42.7305 H      302  PGE302      0.0000
     22 H         -33.5423   50.0519   42.6765 H      302  PGE302      0.0000
     23 H         -34.3987   51.4318   45.2946 H      302  PGE302      0.0000
     24 H         -33.3038   52.2786   44.2483 H      302  PGE302      0.0000
@<TRIPOS>BOND
     1     1     2    1
     2     1     3    1
     3     1    11    1
     4     1    12    1
     5     2    13    1
     6     3     4    1
     7     3    14    1
     8     3    15    1
     9     4     5    1
    10     5     6    1
    11     5    16    1
    12     5    17    1
    13     6    10    1
    14     6    18    1
    15     6    19    1
    16     7     8    1
    17     7    20    1
    18     8     9    1
    19     8    21    1
    20     8    22    1
    21     9    10    1
    22     9    23    1
    23     9    24    1

