DMS_1_A_402
  -ISIS-            3D

 10  9  0  0  0  0  0  0  0  0  1 V2000
   -4.3960   56.4080   15.9810 S   0  0  0  0  0
   -5.4380   56.9110   16.9540 O   0  0  0  0  0
   -3.8810   54.8440   16.6130 C   0  0  0  0  0
   -2.9170   57.3160   16.3460 C   0  0  0  0  0
   -3.0069   54.4744   16.0391 H   0  0  0  0  0
   -4.7102   54.1147   16.5082 H   0  0  0  0  0
   -3.6091   54.9282   17.6853 H   0  0  0  0  0
   -2.0649   56.8929   15.7759 H   0  0  0  0  0
   -2.6931   57.2725   17.4318 H   0  0  0  0  0
   -3.0551   58.3756   16.0484 H   0  0  0  0  0
  1  2  2  0  0  0
  1  3  1  0  0  0
  1  4  1  0  0  0
  3  5  1  0  0  0
  3  6  1  0  0  0
  3  7  1  0  0  0
  4  8  1  0  0  0
  4  9  1  0  0  0
  4 10  1  0  0  0
M  END
$$$$
