K36_1_B_401
  -ISIS-            3D

 60 61  0  0  0  0  0  0  0  0  1 V2000
   11.2160   37.3660   28.3240 C   0  0  0  0  0
   11.8690   36.2440   27.6470 O   0  0  0  0  0
   11.6210   36.0960   26.3240 C   0  0  0  0  0
   11.0670   36.9210   25.6300 O   0  0  0  0  0
    9.8000   37.0300   28.7160 C   0  0  0  0  0
    8.9750   38.0130   29.2480 C   0  0  0  0  0
    7.6840   37.7110   29.6590 C   0  0  0  0  0
    7.2000   36.4240   29.5380 C   0  0  0  0  0
    8.0040   35.4400   29.0010 C   0  0  0  0  0
    9.2960   35.7390   28.5930 C   0  0  0  0  0
   12.0680   34.9060   25.8900 N   0  0  0  0  0
   11.6500   34.4290   24.5880 C   0  0  0  0  0
   10.1290   34.2520   24.5420 C   0  0  0  0  0
    9.5260   33.7270   25.4750 O   0  0  0  0  0
   12.3800   33.1330   24.2170 C   0  0  0  0  0
   13.9130   33.2240   24.2150 C   0  0  0  0  0
   14.6000   31.8910   23.8990 C   0  0  0  0  0
   14.4070   34.3130   23.2980 C   0  0  0  0  0
    9.5250   34.6910   23.4300 N   0  0  0  0  0
    8.0910   34.6140   23.1680 C   0  0  0  0  0
    7.8380   33.7720   21.8660 C   0  0  0  0  0
    6.4410   33.5240   21.8110 O   0  0  0  0  0
    7.4990   36.0220   23.0650 C   0  0  0  0  0
    7.4780   36.7870   24.3950 C   0  0  0  0  0
    6.6770   36.1270   25.5350 C   0  0  0  0  0
    5.9590   37.2420   26.2360 C   0  0  0  0  0
    5.9430   38.3060   25.2420 N   0  0  0  0  0
    6.8300   38.1520   24.2590 C   0  0  0  0  0
    7.0560   38.9620   23.3640 O   0  0  0  0  0
   11.2359   38.2821   27.6981 H   0  0  0  0  0
   11.7888   37.6055   29.2444 H   0  0  0  0  0
    9.3463   39.0469   29.3541 H   0  0  0  0  0
    7.0435   38.5026   30.0844 H   0  0  0  0  0
    6.1746   36.1832   29.8669 H   0  0  0  0  0
    7.6216   34.4101   28.8960 H   0  0  0  0  0
    9.9144   34.9284   28.1745 H   0  0  0  0  0
   12.6329   34.3234   26.5200 H   0  0  0  0  0
   11.9196   35.1957   23.8236 H   0  0  0  0  0
   12.0360   32.8032   23.2089 H   0  0  0  0  0
   12.0672   32.3308   24.9256 H   0  0  0  0  0
   14.2368   33.4971   25.2498 H   0  0  0  0  0
   15.7079   31.9667   23.9751 H   0  0  0  0  0
   14.3618   31.5401   22.8700 H   0  0  0  0  0
   14.2807   31.0894   24.6022 H   0  0  0  0  0
   15.5190   34.3414   23.2580 H   0  0  0  0  0
   14.0870   35.3269   23.6234 H   0  0  0  0  0
   14.0505   34.1706   22.2533 H   0  0  0  0  0
   10.1031   35.1319   22.7012 H   0  0  0  0  0
    7.5790   34.0767   23.9998 H   0  0  0  0  0
    8.3881   32.8075   21.9167 H   0  0  0  0  0
    8.1741   34.3221   20.9614 H   0  0  0  0  0
    6.2585   33.0022   21.0410 H   0  0  0  0  0
    6.4533   35.9537   22.6857 H   0  0  0  0  0
    8.0666   36.6065   22.3045 H   0  0  0  0  0
    8.5258   36.9521   24.7416 H   0  0  0  0  0
    7.3286   35.5448   26.2229 H   0  0  0  0  0
    5.9283   35.4211   25.1068 H   0  0  0  0  0
    6.5165   37.5641   27.1425 H   0  0  0  0  0
    4.9363   36.9374   26.5526 H   0  0  0  0  0
    5.3307   39.1307   25.2896 H   0  0  0  0  0
  1  2  1  0  0  0
  1  5  1  0  0  0
  1 30  1  0  0  0
  1 31  1  0  0  0
  2  3  1  0  0  0
  3  4  2  0  0  0
  3 11  1  0  0  0
  5  6  2  0  0  0
  5 10  1  0  0  0
  6  7  1  0  0  0
  6 32  1  0  0  0
  7  8  2  0  0  0
  7 33  1  0  0  0
  8  9  1  0  0  0
  8 34  1  0  0  0
  9 10  2  0  0  0
  9 35  1  0  0  0
 10 36  1  0  0  0
 11 12  1  0  0  0
 11 37  1  0  0  0
 12 13  1  0  0  0
 12 15  1  0  0  0
 12 38  1  0  0  0
 13 14  2  0  0  0
 13 19  1  0  0  0
 15 16  1  0  0  0
 15 39  1  0  0  0
 15 40  1  0  0  0
 16 17  1  0  0  0
 16 18  1  0  0  0
 16 41  1  0  0  0
 17 42  1  0  0  0
 17 43  1  0  0  0
 17 44  1  0  0  0
 18 45  1  0  0  0
 18 46  1  0  0  0
 18 47  1  0  0  0
 19 20  1  0  0  0
 19 48  1  0  0  0
 20 21  1  0  0  0
 20 23  1  0  0  0
 20 49  1  0  0  0
 21 22  1  0  0  0
 21 50  1  0  0  0
 21 51  1  0  0  0
 22 52  1  0  0  0
 23 24  1  0  0  0
 23 53  1  0  0  0
 23 54  1  0  0  0
 24 25  1  0  0  0
 24 28  1  0  0  0
 24 55  1  0  0  0
 25 26  1  0  0  0
 25 56  1  0  0  0
 25 57  1  0  0  0
 26 27  1  0  0  0
 26 58  1  0  0  0
 26 59  1  0  0  0
 27 28  1  0  0  0
 27 60  1  0  0  0
 28 29  2  0  0  0
M  END
$$$$
