@<TRIPOS>MOLECULE
1SQ_1_A_201
 19 20 0 0 0
SMALL
NO_CHARGES

@<TRIPOS>ATOM
      1 N1        -47.7790  -28.8090    7.4080 N.3    201  1SQ201      0.0000
      2 C2        -46.5160  -29.0570    6.7550 C.ar   201  1SQ201      0.0000
      3 N3        -45.4240  -29.1840    7.4890 N.ar   201  1SQ201      0.0000
      4 C4        -44.2390  -29.4020    6.9360 C.ar   201  1SQ201      0.0000
      5 C5        -44.1190  -29.5250    5.5600 C.ar   201  1SQ201      0.0000
      6 C6        -45.2740  -29.4000    4.7320 C.ar   201  1SQ201      0.0000
      7 C7        -45.1840  -29.5090    3.3150 C.ar   201  1SQ201      0.0000
      8 C8        -46.3240  -29.3850    2.5310 C.ar   201  1SQ201      0.0000
      9 C9        -47.5470  -29.1270    3.1420 C.ar   201  1SQ201      0.0000
     10 C10       -47.6340  -29.0210    4.5180 C.ar   201  1SQ201      0.0000
     11 C11       -46.4760  -29.1540    5.3360 C.ar   201  1SQ201      0.0000
     12 H         -47.7063  -28.7538    8.4316 H      201  1SQ201      0.0000
     13 H         -48.6343  -28.7065    6.8522 H      201  1SQ201      0.0000
     14 H         -43.3565  -29.4924    7.5903 H      201  1SQ201      0.0000
     15 H         -43.1311  -29.7159    5.1091 H      201  1SQ201      0.0000
     16 H         -44.2093  -29.6986    2.8346 H      201  1SQ201      0.0000
     17 H         -46.2590  -29.4810    1.4340 H      201  1SQ201      0.0000
     18 H         -48.4534  -29.0141    2.5228 H      201  1SQ201      0.0000
     19 H         -48.6273  -28.8277    4.9496 H      201  1SQ201      0.0000
@<TRIPOS>BOND
     1     1     2    1
     2     1    12    1
     3     1    13    1
     4     2     3   ar
     5     2    11   ar
     6     3     4   ar
     7     4     5   ar
     8     4    14    1
     9     5     6   ar
    10     5    15    1
    11     6     7   ar
    12     6    11   ar
    13     7     8   ar
    14     7    16    1
    15     8     9   ar
    16     8    17    1
    17     9    10   ar
    18     9    18    1
    19    10    11   ar
    20    10    19    1

