CMU_2_A_401
  -ISIS-            3D

 25 26  0  0  0  0  0  0  0  0  1 V2000
  106.5970  -40.5160   23.6500 Cl  0  0  0  0  0
  105.3380  -40.8110   24.7910 C   0  0  0  0  0
  105.2230  -40.1020   25.9490 C   0  0  0  0  0
  106.2230  -39.0370   26.3710 C   0  0  0  0  0
  106.0590  -37.7290   25.7640 N   0  0  0  0  0
  106.8090  -37.3470   24.5750 C   0  0  0  0  0
  106.0160  -36.1650   24.0440 C   0  0  0  0  0
  105.3570  -35.5490   25.2740 C   0  0  0  0  0
  105.2680  -36.7000   26.2320 C   0  0  0  0  0
  104.6130  -36.7070   27.3290 N   0  0  0  0  0
  104.1950  -40.4010   26.8120 N   0  0  0  0  0
  103.2450  -41.3530   26.5450 C   0  0  0  0  0
  102.3500  -41.6330   27.3220 O   0  0  0  0  0
  103.3910  -42.0430   25.3790 N   0  0  0  0  0
  104.3870  -41.8240   24.4620 C   0  0  0  0  0
  104.3940  -42.5180   23.4250 O   0  0  0  0  0
  107.2491  -39.4094   26.1517 H   0  0  0  0  0
  106.2158  -38.9435   27.4794 H   0  0  0  0  0
  107.5787  -37.9699   24.1101 H   0  0  0  0  0
  106.0587  -35.7463   23.0307 H   0  0  0  0  0
  104.9119  -34.5514   25.3724 H   0  0  0  0  0
  104.0751  -35.8539   27.5264 H   0  0  0  0  0
  104.6633  -37.5392   27.9268 H   0  0  0  0  0
  102.7005  -42.7767   25.1718 H   0  0  0  0  0
  104.1604  -39.8613   27.6854 H   0  0  0  0  0
  1  2  1  0  0  0
  2  3  2  0  0  0
  2 15  1  0  0  0
  3  4  1  0  0  0
  3 11  1  0  0  0
  4  5  1  0  0  0
  4 17  1  0  0  0
  4 18  1  0  0  0
  5  6  1  0  0  0
  5  9  1  0  0  0
  6  7  1  0  0  0
  6 19  1  0  0  0
  7  8  1  0  0  0
  7 20  1  0  0  0
  8  9  1  0  0  0
  8 21  1  0  0  0
  9 10  1  0  0  0
 10 22  1  0  0  0
 10 23  1  0  0  0
 11 12  1  0  0  0
 11 25  1  0  0  0
 12 13  2  0  0  0
 12 14  1  0  0  0
 14 15  1  0  0  0
 14 24  1  0  0  0
 15 16  2  0  0  0
M  END
$$$$
