@<TRIPOS>MOLECULE
CMU_2_A_401
 25 26 0 0 0
SMALL
NO_CHARGES

@<TRIPOS>ATOM
      1 CL1       106.5970  -40.5160   23.6500 Cl     401  CMU401      0.0000
      2 C2        105.3380  -40.8110   24.7910 C.ar   401  CMU401      0.0000
      3 C3        105.2230  -40.1020   25.9490 C.ar   401  CMU401      0.0000
      4 C4        106.2230  -39.0370   26.3710 C.3    401  CMU401      0.0000
      5 N5        106.0590  -37.7290   25.7640 N.ar   401  CMU401      0.0000
      6 C6        106.8090  -37.3470   24.5750 C.ar   401  CMU401      0.0000
      7 C7        106.0160  -36.1650   24.0440 C.ar   401  CMU401      0.0000
      8 C8        105.3570  -35.5490   25.2740 C.ar   401  CMU401      0.0000
      9 C9        105.2680  -36.7000   26.2320 C.ar   401  CMU401      0.0000
     10 N10       104.6130  -36.7070   27.3290 N.pl3  401  CMU401      0.0000
     11 N11       104.1950  -40.4010   26.8120 N.ar   401  CMU401      0.0000
     12 C12       103.2450  -41.3530   26.5450 C.ar   401  CMU401      0.0000
     13 O13       102.3500  -41.6330   27.3220 O.2    401  CMU401      0.0000
     14 N14       103.3910  -42.0430   25.3790 N.ar   401  CMU401      0.0000
     15 C15       104.3870  -41.8240   24.4620 C.ar   401  CMU401      0.0000
     16 O16       104.3940  -42.5180   23.4250 O.2    401  CMU401      0.0000
     17 H         107.2491  -39.4094   26.1517 H      401  CMU401      0.0000
     18 H         106.2158  -38.9435   27.4794 H      401  CMU401      0.0000
     19 H         107.5787  -37.9699   24.1101 H      401  CMU401      0.0000
     20 H         106.0587  -35.7463   23.0307 H      401  CMU401      0.0000
     21 H         104.9119  -34.5514   25.3724 H      401  CMU401      0.0000
     22 H         104.0751  -35.8539   27.5264 H      401  CMU401      0.0000
     23 H         104.6633  -37.5392   27.9268 H      401  CMU401      0.0000
     24 H         102.7005  -42.7767   25.1718 H      401  CMU401      0.0000
     25 H         104.1604  -39.8613   27.6854 H      401  CMU401      0.0000
@<TRIPOS>BOND
     1     1     2    1
     2     2     3   ar
     3     2    15   ar
     4     3     4    1
     5     3    11   ar
     6     4     5    1
     7     4    17    1
     8     4    18    1
     9     5     6   ar
    10     5     9   ar
    11     6     7   ar
    12     6    19    1
    13     7     8   ar
    14     7    20    1
    15     8     9   ar
    16     8    21    1
    17     9    10    1
    18    10    22    1
    19    10    23    1
    20    11    12   ar
    21    11    25    1
    22    12    13    2
    23    12    14   ar
    24    14    15   ar
    25    14    24    1
    26    15    16    2

