@<TRIPOS>MOLECULE
EDO_1_A_408
 10 9 0 0 0
SMALL
NO_CHARGES

@<TRIPOS>ATOM
      1 C1         43.0170  -58.3190   18.8460 C.3    408  EDO408      0.0000
      2 O1         43.2540  -57.7760   17.5230 O.3    408  EDO408      0.0000
      3 C2         41.7600  -57.7780   19.5220 C.3    408  EDO408      0.0000
      4 O2         41.6880  -58.3140   20.8550 O.3    408  EDO408      0.0000
      5 H          43.9076  -58.1157   19.4785 H      408  EDO408      0.0000
      6 H          42.9433  -59.4232   18.7567 H      408  EDO408      0.0000
      7 H          43.5763  -56.8893   17.6169 H      408  EDO408      0.0000
      8 H          40.8544  -58.0827   18.9583 H      408  EDO408      0.0000
      9 H          41.7722  -56.6684   19.5593 H      408  EDO408      0.0000
     10 H          42.2136  -57.7725   21.4291 H      408  EDO408      0.0000
@<TRIPOS>BOND
     1     1     2    1
     2     1     3    1
     3     1     5    1
     4     1     6    1
     5     2     7    1
     6     3     4    1
     7     3     8    1
     8     3     9    1
     9     4    10    1

