@<TRIPOS>MOLECULE
EDO_3_B_403
 10 9 0 0 0
SMALL
NO_CHARGES

@<TRIPOS>ATOM
      1 C1         79.8210    4.0900  -26.9480 C.3    403  EDO403      0.0000
      2 O1         78.8350    5.1260  -26.8420 O.3    403  EDO403      0.0000
      3 C2         80.1810    3.8740  -28.4080 C.3    403  EDO403      0.0000
      4 O2         79.0220    3.3770  -29.1130 O.3    403  EDO403      0.0000
      5 H          79.4347    3.1557  -26.4895 H      403  EDO403      0.0000
      6 H          80.7185    4.3929  -26.3699 H      403  EDO403      0.0000
      7 H          78.1323    4.8854  -27.4345 H      403  EDO403      0.0000
      8 H          81.0070    3.1364  -28.4929 H      403  EDO403      0.0000
      9 H          80.5274    4.8213  -28.8725 H      403  EDO403      0.0000
     10 H          79.2656    3.2398  -30.0188 H      403  EDO403      0.0000
@<TRIPOS>BOND
     1     1     2    1
     2     1     3    1
     3     1     5    1
     4     1     6    1
     5     2     7    1
     6     3     4    1
     7     3     8    1
     8     3     9    1
     9     4    10    1

