EDO_1_A_408
  -ISIS-            3D

 10  9  0  0  0  0  0  0  0  0  1 V2000
   43.0170  -58.3190   18.8460 C   0  0  0  0  0
   43.2540  -57.7760   17.5230 O   0  0  0  0  0
   41.7600  -57.7780   19.5220 C   0  0  0  0  0
   41.6880  -58.3140   20.8550 O   0  0  0  0  0
   43.9076  -58.1157   19.4785 H   0  0  0  0  0
   42.9433  -59.4232   18.7567 H   0  0  0  0  0
   43.5763  -56.8893   17.6169 H   0  0  0  0  0
   40.8544  -58.0827   18.9583 H   0  0  0  0  0
   41.7722  -56.6684   19.5593 H   0  0  0  0  0
   42.2136  -57.7725   21.4291 H   0  0  0  0  0
  1  2  1  0  0  0
  1  3  1  0  0  0
  1  5  1  0  0  0
  1  6  1  0  0  0
  2  7  1  0  0  0
  3  4  1  0  0  0
  3  8  1  0  0  0
  3  9  1  0  0  0
  4 10  1  0  0  0
M  END
$$$$
