EDO_3_A_403
  -ISIS-            3D

 10  9  0  0  0  0  0  0  0  0  1 V2000
   86.2480  -39.0570   14.6620 C   0  0  0  0  0
   85.0600  -39.7890   14.3450 O   0  0  0  0  0
   86.6300  -39.2470   16.1140 C   0  0  0  0  0
   85.8020  -38.4150   16.9390 O   0  0  0  0  0
   86.1098  -37.9829   14.4180 H   0  0  0  0  0
   87.0637  -39.4302   14.0080 H   0  0  0  0  0
   84.3742  -39.4536   14.9090 H   0  0  0  0  0
   87.6920  -38.9580   16.2653 H   0  0  0  0  0
   86.5292  -40.3101   16.4177 H   0  0  0  0  0
   86.0614  -38.5414   17.8421 H   0  0  0  0  0
  1  2  1  0  0  0
  1  3  1  0  0  0
  1  5  1  0  0  0
  1  6  1  0  0  0
  2  7  1  0  0  0
  3  4  1  0  0  0
  3  8  1  0  0  0
  3  9  1  0  0  0
  4 10  1  0  0  0
M  END
$$$$
