EDO_1_A_405
  -ISIS-            3D

 10  9  0  0  0  0  0  0  0  0  1 V2000
   57.3930  -34.6770    0.0340 C   0  0  0  0  0
   56.9020  -33.7090   -0.9110 O   0  0  0  0  0
   56.4420  -34.9700    1.1900 C   0  0  0  0  0
   55.1110  -35.2420    0.6930 O   0  0  0  0  0
   58.3781  -34.3460    0.4265 H   0  0  0  0  0
   57.5856  -35.6198   -0.5205 H   0  0  0  0  0
   57.0931  -32.8425   -0.5766 H   0  0  0  0  0
   56.3950  -34.0994    1.8773 H   0  0  0  0  0
   56.7948  -35.8384    1.7832 H   0  0  0  0  0
   54.9930  -34.6974   -0.0773 H   0  0  0  0  0
  1  2  1  0  0  0
  1  3  1  0  0  0
  1  5  1  0  0  0
  1  6  1  0  0  0
  2  7  1  0  0  0
  3  4  1  0  0  0
  3  8  1  0  0  0
  3  9  1  0  0  0
  4 10  1  0  0  0
M  END
$$$$
