@<TRIPOS>MOLECULE
EDO_2_A_410
 10 9 0 0 0
SMALL
NO_CHARGES

@<TRIPOS>ATOM
      1 C1        121.2550  -41.2750   34.9660 C.3    410  EDO410      0.0000
      2 O1        121.5240  -40.2430   36.0220 O.3    410  EDO410      0.0000
      3 C2        120.5820  -42.3950   35.6530 C.3    410  EDO410      0.0000
      4 O2        120.3610  -41.5200   36.8100 O.3    410  EDO410      0.0000
      5 H         122.2011  -41.5871   34.4772 H      410  EDO410      0.0000
      6 H         120.6033  -40.8238   34.1889 H      410  EDO410      0.0000
      7 H         122.3133  -40.4976   36.4871 H      410  EDO410      0.0000
      8 H         121.2486  -43.2389   35.9214 H      410  EDO410      0.0000
      9 H         119.6307  -42.7192   35.1859 H      410  EDO410      0.0000
     10 H         119.7162  -41.9359   37.3712 H      410  EDO410      0.0000
@<TRIPOS>BOND
     1     1     2    1
     2     1     3    1
     3     1     5    1
     4     1     6    1
     5     2     7    1
     6     3     4    1
     7     3     8    1
     8     3     9    1
     9     4    10    1

