EDO_3_A_410
  -ISIS-            3D

 10  9  0  0  0  0  0  0  0  0  1 V2000
   50.5490   -5.0040   34.9660 C   0  0  0  0  0
   49.5210   -5.2870   36.0220 O   0  0  0  0  0
   51.8560   -5.0260   35.6530 C   0  0  0  0  0
   51.2080   -5.6550   36.8100 O   0  0  0  0  0
   50.3435   -4.0160   34.5054 H   0  0  0  0  0
   50.4892   -5.7713   34.1649 H   0  0  0  0  0
   49.2603   -6.1977   35.9397 H   0  0  0  0  0
   52.2515   -4.0232   35.9126 H   0  0  0  0  0
   52.6141   -5.6919   35.1956 H   0  0  0  0  0
   51.7967   -5.5736   37.5515 H   0  0  0  0  0
  1  2  1  0  0  0
  1  3  1  0  0  0
  1  5  1  0  0  0
  1  6  1  0  0  0
  2  7  1  0  0  0
  3  4  1  0  0  0
  3  8  1  0  0  0
  3  9  1  0  0  0
  4 10  1  0  0  0
M  END
$$$$
