@<TRIPOS>MOLECULE
EDO_3_B_407
 10 9 0 0 0
SMALL
NO_CHARGES

@<TRIPOS>ATOM
      1 C1         72.5290  -32.5780  -14.3750 C.3    407  EDO407      0.0000
      2 O1         71.1590  -32.1180  -14.7840 O.3    407  EDO407      0.0000
      3 C2         71.8260  -33.7250  -13.7800 C.3    407  EDO407      0.0000
      4 O2         72.2000  -35.1680  -14.0120 O.3    407  EDO407      0.0000
      5 H          72.9997  -31.8701  -13.6644 H      407  EDO407      0.0000
      6 H          73.1464  -32.8267  -15.2604 H      407  EDO407      0.0000
      7 H          71.2711  -31.3379  -15.3113 H      407  EDO407      0.0000
      8 H          70.7165  -33.7166  -13.8815 H      407  EDO407      0.0000
      9 H          71.9477  -33.5850  -12.6806 H      407  EDO407      0.0000
     10 H          71.5113  -35.7082  -13.6478 H      407  EDO407      0.0000
@<TRIPOS>BOND
     1     1     2    1
     2     1     3    1
     3     1     5    1
     4     1     6    1
     5     2     7    1
     6     3     4    1
     7     3     8    1
     8     3     9    1
     9     4    10    1

