@<TRIPOS>MOLECULE
EDO_2_B_403
 10 9 0 0 0
SMALL
NO_CHARGES

@<TRIPOS>ATOM
      1 C1        114.4940  -71.1720  -26.9480 C.3    403  EDO403      0.0000
      2 O1        115.8840  -70.8360  -26.8420 O.3    403  EDO403      0.0000
      3 C2        114.1280  -71.3760  -28.4080 C.3    403  EDO403      0.0000
      4 O2        114.2770  -70.1230  -29.1130 O.3    403  EDO403      0.0000
      5 H         113.8782  -70.3695  -26.4907 H      403  EDO403      0.0000
      6 H         114.3071  -72.0999  -26.3691 H      403  EDO403      0.0000
      7 H         116.0268  -70.1066  -27.4340 H      403  EDO403      0.0000
      8 H         113.0766  -71.7232  -28.4939 H      403  EDO403      0.0000
      9 H         114.7762  -72.1489  -28.8721 H      403  EDO403      0.0000
     10 H         114.0373  -70.2654  -30.0189 H      403  EDO403      0.0000
@<TRIPOS>BOND
     1     1     2    1
     2     1     3    1
     3     1     5    1
     4     1     6    1
     5     2     7    1
     6     3     4    1
     7     3     8    1
     8     3     9    1
     9     4    10    1

