EDO_1_A_407
  -ISIS-            3D

 10  9  0  0  0  0  0  0  0  0  1 V2000
   45.0590  -37.1130   36.2730 C   0  0  0  0  0
   45.6570  -38.3890   36.0350 O   0  0  0  0  0
   45.1870  -36.2840   35.0030 C   0  0  0  0  0
   44.0800  -35.3790   34.8970 O   0  0  0  0  0
   45.5670  -36.6157   37.1244 H   0  0  0  0  0
   43.9942  -37.2502   36.5576 H   0  0  0  0  0
   44.9985  -38.9654   35.6697 H   0  0  0  0  0
   45.1875  -36.9412   34.1074 H   0  0  0  0  0
   46.1438  -35.7207   34.9991 H   0  0  0  0  0
   44.2105  -34.8394   34.1285 H   0  0  0  0  0
  1  2  1  0  0  0
  1  3  1  0  0  0
  1  5  1  0  0  0
  1  6  1  0  0  0
  2  7  1  0  0  0
  3  4  1  0  0  0
  3  8  1  0  0  0
  3  9  1  0  0  0
  4 10  1  0  0  0
M  END
$$$$
