@<TRIPOS>MOLECULE
EDO_1_A_407
 10 9 0 0 0
SMALL
NO_CHARGES

@<TRIPOS>ATOM
      1 C1         45.0590  -37.1130   36.2730 C.3    407  EDO407      0.0000
      2 O1         45.6570  -38.3890   36.0350 O.3    407  EDO407      0.0000
      3 C2         45.1870  -36.2840   35.0030 C.3    407  EDO407      0.0000
      4 O2         44.0800  -35.3790   34.8970 O.3    407  EDO407      0.0000
      5 H          45.5670  -36.6157   37.1244 H      407  EDO407      0.0000
      6 H          43.9942  -37.2502   36.5576 H      407  EDO407      0.0000
      7 H          44.9985  -38.9654   35.6697 H      407  EDO407      0.0000
      8 H          45.1875  -36.9412   34.1074 H      407  EDO407      0.0000
      9 H          46.1438  -35.7207   34.9991 H      407  EDO407      0.0000
     10 H          44.2105  -34.8394   34.1285 H      407  EDO407      0.0000
@<TRIPOS>BOND
     1     1     2    1
     2     1     3    1
     3     1     5    1
     4     1     6    1
     5     2     7    1
     6     3     4    1
     7     3     8    1
     8     3     9    1
     9     4    10    1

