EDO_3_A_404
  -ISIS-            3D

 10  9  0  0  0  0  0  0  0  0  1 V2000
   95.7610  -46.4130   -0.8780 C   0  0  0  0  0
   97.0640  -46.9670   -0.5480 O   0  0  0  0  0
   95.5190  -45.1710   -0.0060 C   0  0  0  0  0
   96.4420  -44.9760    1.1010 O   0  0  0  0  0
   94.9811  -47.1787   -0.6812 H   0  0  0  0  0
   95.7190  -46.1568   -1.9572 H   0  0  0  0  0
   97.1973  -47.7378   -1.0829 H   0  0  0  0  0
   94.4859  -45.1914    0.3993 H   0  0  0  0  0
   95.5738  -44.2659   -0.6476 H   0  0  0  0  0
   97.1821  -45.5482    0.9346 H   0  0  0  0  0
  1  2  1  0  0  0
  1  3  1  0  0  0
  1  5  1  0  0  0
  1  6  1  0  0  0
  2  7  1  0  0  0
  3  4  1  0  0  0
  3  8  1  0  0  0
  3  9  1  0  0  0
  4 10  1  0  0  0
M  END
$$$$
