@<TRIPOS>MOLECULE
EDO_2_A_403
 10 9 0 0 0
SMALL
NO_CHARGES

@<TRIPOS>ATOM
      1 C1         73.9140  -55.1640   14.6620 C.3    403  EDO403      0.0000
      2 O1         73.8750  -53.7700   14.3450 O.3    403  EDO403      0.0000
      3 C2         73.5600  -55.4000   16.1140 C.3    403  EDO403      0.0000
      4 O2         74.6930  -55.0990   16.9390 O.3    403  EDO403      0.0000
      5 H          74.9177  -55.5797   14.4317 H      403  EDO403      0.0000
      6 H          73.1865  -55.6934   14.0103 H      403  EDO403      0.0000
      7 H          74.2301  -53.6500   13.4740 H      403  EDO403      0.0000
      8 H          73.2550  -56.4573   16.2686 H      403  EDO403      0.0000
      9 H          72.7018  -54.7676   16.4209 H      403  EDO403      0.0000
     10 H          75.0369  -55.9078   17.2953 H      403  EDO403      0.0000
@<TRIPOS>BOND
     1     1     2    1
     2     1     3    1
     3     1     5    1
     4     1     6    1
     5     2     7    1
     6     3     4    1
     7     3     8    1
     8     3     9    1
     9     4    10    1

