@<TRIPOS>MOLECULE
FMT_3_B_406
 3 2 0 0 0
SMALL
NO_CHARGES

@<TRIPOS>ATOM
      1 C          76.0840    2.6420  -31.7990 C.2    406  FMT406      0.0000
      2 O1         75.1980    1.8660  -31.4170 O.2    406  FMT406      0.0000
      3 O2         77.0240    2.3340  -32.5460 O.2    406  FMT406     -0.5000
@<TRIPOS>BOND
     1     1     2   ar
     2     1     3   ar

