@<TRIPOS>MOLECULE
FMT_3_A_409
 3 2 0 0 0
SMALL
NO_CHARGES

@<TRIPOS>ATOM
      1 C          45.6540  -29.0320   31.6380 C.2    409  FMT409      0.0000
      2 O1         45.6450  -27.8570   32.1560 O.2    409  FMT409      0.0000
      3 O2         46.4840  -29.6440   32.4240 O.2    409  FMT409     -0.5000
@<TRIPOS>BOND
     1     1     2   ar
     2     1     3   ar

