@<TRIPOS>MOLECULE
FMT_1_B_405
 3 2 0 0 0
SMALL
NO_CHARGES

@<TRIPOS>ATOM
      1 C          41.4460  -66.8090  -24.4660 C.2    405  FMT405      0.0000
      2 O1         41.9520  -66.8980  -23.3420 O.2    405  FMT405      0.0000
      3 O2         42.0450  -66.4020  -25.4690 O.2    405  FMT405     -0.5000
@<TRIPOS>BOND
     1     1     2   ar
     2     1     3   ar

