@<TRIPOS>MOLECULE
FMT_1_B_404
 3 2 0 0 0
SMALL
NO_CHARGES

@<TRIPOS>ATOM
      1 C          39.5310  -49.3600  -31.3980 C.2    404  FMT404      0.0000
      2 O1         39.7890  -50.4710  -30.8270 O.2    404  FMT404      0.0000
      3 O2         38.5680  -48.5470  -31.1960 O.2    404  FMT404     -0.5000
@<TRIPOS>BOND
     1     1     2   ar
     2     1     3   ar

