@<TRIPOS>MOLECULE
FMT_2_B_405
 3 2 0 0 0
SMALL
NO_CHARGES

@<TRIPOS>ATOM
      1 C         112.5670  -61.3530  -24.4660 C.2    405  FMT405      0.0000
      2 O1        112.3900  -60.8710  -23.3420 O.2    405  FMT405      0.0000
      3 O2        111.9140  -61.0380  -25.4690 O.2    405  FMT405     -0.5000
@<TRIPOS>BOND
     1     1     2   ar
     2     1     3   ar

