@<TRIPOS>MOLECULE
FMT_2_A_409
 3 2 0 0 0
SMALL
NO_CHARGES

@<TRIPOS>ATOM
      1 C         102.8940  -25.0210   31.6380 C.2    409  FMT409      0.0000
      2 O1        103.9150  -25.6010   32.1560 O.2    409  FMT409      0.0000
      3 O2        101.9490  -25.4350   32.4240 O.2    409  FMT409     -0.5000
@<TRIPOS>BOND
     1     1     2   ar
     2     1     3   ar

