DMS_1_A_401
  -ISIS-            3D

 10  9  0  0  0  0  0  0  0  0  1 V2000
    6.9570  -28.0570   21.5090 S   0  0  0  0  0
    7.7160  -27.0540   22.3220 O   0  0  0  0  0
    5.7330  -28.7290   22.5990 C   0  0  0  0  0
    5.8790  -27.1320   20.4740 C   0  0  0  0  0
    5.0358  -29.3768   22.0293 H   0  0  0  0  0
    5.1620  -27.9145   23.0904 H   0  0  0  0  0
    6.2318  -29.3403   23.3786 H   0  0  0  0  0
    5.1797  -27.8151   19.9500 H   0  0  0  0  0
    6.4762  -26.5846   19.7164 H   0  0  0  0  0
    5.2990  -26.3993   21.0720 H   0  0  0  0  0
  1  2  2  0  0  0
  1  3  1  0  0  0
  1  4  1  0  0  0
  3  5  1  0  0  0
  3  6  1  0  0  0
  3  7  1  0  0  0
  4  8  1  0  0  0
  4  9  1  0  0  0
  4 10  1  0  0  0
M  END
$$$$
