DMS_2_A_402
  -ISIS-            3D

 10  9  0  0  0  0  0  0  0  0  1 V2000
   -6.0910   -1.1450    6.2900 S   0  0  0  0  0
   -6.9850   -1.0160    7.4720 O   0  0  0  0  0
   -7.1290   -0.9190    4.8530 C   0  0  0  0  0
   -5.7890   -2.8780    6.0930 C   0  0  0  0  0
   -6.5522   -1.1475    3.9334 H   0  0  0  0  0
   -7.4692    0.1360    4.8102 H   0  0  0  0  0
   -8.0158   -1.5831    4.9091 H   0  0  0  0  0
   -5.2459   -3.0602    5.1430 H   0  0  0  0  0
   -6.7454   -3.4399    6.0852 H   0  0  0  0  0
   -5.1652   -3.2399    6.9359 H   0  0  0  0  0
  1  2  2  0  0  0
  1  3  1  0  0  0
  1  4  1  0  0  0
  3  5  1  0  0  0
  3  6  1  0  0  0
  3  7  1  0  0  0
  4  8  1  0  0  0
  4  9  1  0  0  0
  4 10  1  0  0  0
M  END
$$$$
