@<TRIPOS>MOLECULE
DMS_2_A_401
 10 9 0 0 0
SMALL
NO_CHARGES

@<TRIPOS>ATOM
      1 S          -6.9570  -28.0570  -21.5090 S.o    401  DMS401      0.0000
      2 O          -7.7160  -27.0540  -22.3220 O.2    401  DMS401      0.0000
      3 C1         -5.7330  -28.7290  -22.5990 C.3    401  DMS401      0.0000
      4 C2         -5.8790  -27.1320  -20.4740 C.3    401  DMS401      0.0000
      5 H          -5.0358  -29.3768  -22.0293 H      401  DMS401      0.0000
      6 H          -5.1620  -27.9145  -23.0904 H      401  DMS401      0.0000
      7 H          -6.2318  -29.3403  -23.3786 H      401  DMS401      0.0000
      8 H          -5.1797  -27.8151  -19.9500 H      401  DMS401      0.0000
      9 H          -6.4762  -26.5846  -19.7164 H      401  DMS401      0.0000
     10 H          -5.2990  -26.3993  -21.0720 H      401  DMS401      0.0000
@<TRIPOS>BOND
     1     1     2    2
     2     1     3    1
     3     1     4    1
     4     3     5    1
     5     3     6    1
     6     3     7    1
     7     4     8    1
     8     4     9    1
     9     4    10    1

