@<TRIPOS>MOLECULE
DMS_2_A_402
 10 9 0 0 0
SMALL
NO_CHARGES

@<TRIPOS>ATOM
      1 S          -6.0910   -1.1450    6.2900 S.o    402  DMS402      0.0000
      2 O          -6.9850   -1.0160    7.4720 O.2    402  DMS402      0.0000
      3 C1         -7.1290   -0.9190    4.8530 C.3    402  DMS402      0.0000
      4 C2         -5.7890   -2.8780    6.0930 C.3    402  DMS402      0.0000
      5 H          -6.5522   -1.1475    3.9334 H      402  DMS402      0.0000
      6 H          -7.4692    0.1360    4.8102 H      402  DMS402      0.0000
      7 H          -8.0158   -1.5831    4.9091 H      402  DMS402      0.0000
      8 H          -5.2459   -3.0602    5.1430 H      402  DMS402      0.0000
      9 H          -6.7454   -3.4399    6.0852 H      402  DMS402      0.0000
     10 H          -5.1652   -3.2399    6.9359 H      402  DMS402      0.0000
@<TRIPOS>BOND
     1     1     2    2
     2     1     3    1
     3     1     4    1
     4     3     5    1
     5     3     6    1
     6     3     7    1
     7     4     8    1
     8     4     9    1
     9     4    10    1

