@<TRIPOS>MOLECULE
DMS_2_A_403
 10 9 0 0 0
SMALL
NO_CHARGES

@<TRIPOS>ATOM
      1 S          -2.2850  -18.8940   -8.0810 S.o    403  DMS403      0.0000
      2 O          -3.6260  -18.6240   -8.7250 O.2    403  DMS403      0.0000
      3 C1         -1.0690  -18.2060   -9.1840 C.3    403  DMS403      0.0000
      4 C2         -1.9210  -20.5950   -8.4440 C.3    403  DMS403      0.0000
      5 H          -0.0520  -18.5090   -8.8613 H      403  DMS403      0.0000
      6 H          -1.1366  -17.0993   -9.1564 H      403  DMS403      0.0000
      7 H          -1.2469  -18.5510  -10.2235 H      403  DMS403      0.0000
      8 H          -0.8793  -20.8307   -8.1446 H      403  DMS403      0.0000
      9 H          -2.0507  -20.7987   -9.5270 H      403  DMS403      0.0000
     10 H          -2.6121  -21.2463   -7.8709 H      403  DMS403      0.0000
@<TRIPOS>BOND
     1     1     2    2
     2     1     3    1
     3     1     4    1
     4     3     5    1
     5     3     6    1
     6     3     7    1
     7     4     8    1
     8     4     9    1
     9     4    10    1

