EDO_1_A_402
  -ISIS-            3D

 10  9  0  0  0  0  0  0  0  0  1 V2000
  -29.5260  -25.9540   10.8230 C   0  0  0  0  0
  -28.4810  -26.3480   11.7200 O   0  0  0  0  0
  -30.2270  -24.6990   11.3360 C   0  0  0  0  0
  -30.4780  -23.7980   10.2490 O   0  0  0  0  0
  -30.2531  -26.7840   10.7008 H   0  0  0  0  0
  -29.0801  -25.7605    9.8241 H   0  0  0  0  0
  -28.0358  -27.0962   11.3448 H   0  0  0  0  0
  -29.5891  -24.1831   12.0849 H   0  0  0  0  0
  -31.1805  -24.9611   11.8405 H   0  0  0  0  0
  -30.8661  -23.0089   10.6033 H   0  0  0  0  0
  1  2  1  0  0  0
  1  3  1  0  0  0
  1  5  1  0  0  0
  1  6  1  0  0  0
  2  7  1  0  0  0
  3  4  1  0  0  0
  3  8  1  0  0  0
  3  9  1  0  0  0
  4 10  1  0  0  0
M  END
$$$$
