@<TRIPOS>MOLECULE
EDO_2_A_401
 10 9 0 0 0
SMALL
NO_CHARGES

@<TRIPOS>ATOM
      1 C1         -9.5760    4.3260  -26.3410 C.3    401  EDO401      0.0000
      2 O1         -8.2660    3.7470  -26.3460 O.3    401  EDO401      0.0000
      3 C2         -9.4740    5.8450  -26.4400 C.3    401  EDO401      0.0000
      4 O2         -8.8420    6.3700  -25.2650 O.3    401  EDO401      0.0000
      5 H         -10.1153    4.0243  -25.4187 H      401  EDO401      0.0000
      6 H         -10.1469    3.9210  -27.2020 H      401  EDO401      0.0000
      7 H          -7.7743    4.1945  -25.6673 H      401  EDO401      0.0000
      8 H         -10.4885    6.2863  -26.5386 H      401  EDO401      0.0000
      9 H          -8.8948    6.1378  -27.3411 H      401  EDO401      0.0000
     10 H          -8.8004    7.3134  -25.3476 H      401  EDO401      0.0000
@<TRIPOS>BOND
     1     1     2    1
     2     1     3    1
     3     1     5    1
     4     1     6    1
     5     2     7    1
     6     3     4    1
     7     3     8    1
     8     3     9    1
     9     4    10    1

