@<TRIPOS>MOLECULE
EDO_1_A_402
 10 9 0 0 0
SMALL
NO_CHARGES

@<TRIPOS>ATOM
      1 C1        -29.5260  -25.9540   10.8230 C.3    402  EDO402      0.0000
      2 O1        -28.4810  -26.3480   11.7200 O.3    402  EDO402      0.0000
      3 C2        -30.2270  -24.6990   11.3360 C.3    402  EDO402      0.0000
      4 O2        -30.4780  -23.7980   10.2490 O.3    402  EDO402      0.0000
      5 H         -30.2531  -26.7840   10.7008 H      402  EDO402      0.0000
      6 H         -29.0801  -25.7605    9.8241 H      402  EDO402      0.0000
      7 H         -28.0358  -27.0962   11.3448 H      402  EDO402      0.0000
      8 H         -29.5891  -24.1831   12.0849 H      402  EDO402      0.0000
      9 H         -31.1805  -24.9611   11.8405 H      402  EDO402      0.0000
     10 H         -30.8661  -23.0089   10.6033 H      402  EDO402      0.0000
@<TRIPOS>BOND
     1     1     2    1
     2     1     3    1
     3     1     5    1
     4     1     6    1
     5     2     7    1
     6     3     4    1
     7     3     8    1
     8     3     9    1
     9     4    10    1

