@<TRIPOS>MOLECULE
FMT_2_A_404
 3 2 0 0 0
SMALL
NO_CHARGES

@<TRIPOS>ATOM
      1 C          30.1630  -19.5200   -7.5110 C.2    404  FMT404      0.0000
      2 O1         29.5940  -18.5490   -7.9980 O.2    404  FMT404      0.0000
      3 O2         29.8270  -20.6760   -7.7670 O.2    404  FMT404     -0.5000
@<TRIPOS>BOND
     1     1     2   ar
     2     1     3   ar

