@<TRIPOS>MOLECULE
FMT_1_A_406
 3 2 0 0 0
SMALL
NO_CHARGES

@<TRIPOS>ATOM
      1 C          -6.4440    4.9750   30.5060 C.2    406  FMT406      0.0000
      2 O1         -7.0060    4.1930   31.2680 O.2    406  FMT406      0.0000
      3 O2         -5.7830    5.9210   30.9230 O.2    406  FMT406     -0.5000
@<TRIPOS>BOND
     1     1     2   ar
     2     1     3   ar

