@<TRIPOS>MOLECULE
FMT_1_A_403
 3 2 0 0 0
SMALL
NO_CHARGES

@<TRIPOS>ATOM
      1 C          -6.1980   -9.6820   23.4870 C.2    403  FMT403      0.0000
      2 O1         -5.3280   -9.9420   22.6540 O.2    403  FMT403      0.0000
      3 O2         -7.1390  -10.4410   23.7220 O.2    403  FMT403     -0.5000
@<TRIPOS>BOND
     1     1     2   ar
     2     1     3   ar

