@<TRIPOS>MOLECULE
ANN_1_A_201
 18 18 0 0 0
SMALL
NO_CHARGES

@<TRIPOS>ATOM
      1 C8          8.7150    6.9800   18.4280 C.3    201  ANN201      0.0000
      2 O3          9.9210    6.6270   17.8230 O.3    201  ANN201      0.0000
      3 C5         10.2680    5.2760   17.9270 C.ar   201  ANN201      0.0000
      4 C6         10.7040    4.7370   19.1230 C.ar   201  ANN201      0.0000
      5 C7         11.0520    3.4020   19.1980 C.ar   201  ANN201      0.0000
      6 C2         10.9720    2.5860   18.0750 C.ar   201  ANN201      0.0000
      7 C3         10.5360    3.1420   16.8810 C.ar   201  ANN201      0.0000
      8 C4         10.1880    4.4750   16.8120 C.ar   201  ANN201      0.0000
      9 C1         11.3620    1.0980   18.1440 C.2    201  ANN201      0.0000
     10 O1         11.9780    0.6380   19.1400 O.co2  201  ANN201     -0.5000
     11 O2         11.0920    0.3140   17.1970 O.co2  201  ANN201     -0.5000
     12 H           8.5156    8.0566   18.2514 H      201  ANN201      0.0000
     13 H           8.7549    6.8103   19.5236 H      201  ANN201      0.0000
     14 H           7.8754    6.3951   17.9980 H      201  ANN201      0.0000
     15 H          10.7800    5.3733   20.0205 H      201  ANN201      0.0000
     16 H          11.3972    2.9888   20.1608 H      201  ANN201      0.0000
     17 H          10.4641    2.5210   15.9720 H      201  ANN201      0.0000
     18 H           9.8455    4.9031   15.8548 H      201  ANN201      0.0000
@<TRIPOS>BOND
     1     1     2    1
     2     1    12    1
     3     1    13    1
     4     1    14    1
     5     2     3    1
     6     3     4   ar
     7     3     8   ar
     8     4     5   ar
     9     4    15    1
    10     5     6   ar
    11     5    16    1
    12     6     7   ar
    13     6     9    1
    14     7     8   ar
    15     7    17    1
    16     8    18    1
    17     9    10   ar
    18     9    11   ar

