EDO_1_B_401
  -ISIS-            3D

 10  9  0  0  0  0  0  0  0  0  1 V2000
   26.7910   10.3450   18.7730 C   0  0  0  0  0
   26.5020   11.6930   19.3350 O   0  0  0  0  0
   28.1870    9.7640   18.9310 C   0  0  0  0  0
   28.6020    9.6480   20.3160 O   0  0  0  0  0
   26.5466   10.3730   17.6888 H   0  0  0  0  0
   26.0676    9.6316   19.2244 H   0  0  0  0  0
   25.5931   11.8927   19.1550 H   0  0  0  0  0
   28.9204   10.4009   18.3928 H   0  0  0  0  0
   28.2379    8.7580   18.4647 H   0  0  0  0  0
   28.4046   10.4802   20.7282 H   0  0  0  0  0
  1  2  1  0  0  0
  1  3  1  0  0  0
  1  5  1  0  0  0
  1  6  1  0  0  0
  2  7  1  0  0  0
  3  4  1  0  0  0
  3  8  1  0  0  0
  3  9  1  0  0  0
  4 10  1  0  0  0
M  END
$$$$
