@<TRIPOS>MOLECULE
EDO_1_B_401
 10 9 0 0 0
SMALL
NO_CHARGES

@<TRIPOS>ATOM
      1 C1         26.7910   10.3450   18.7730 C.3    401  EDO401      0.0000
      2 O1         26.5020   11.6930   19.3350 O.3    401  EDO401      0.0000
      3 C2         28.1870    9.7640   18.9310 C.3    401  EDO401      0.0000
      4 O2         28.6020    9.6480   20.3160 O.3    401  EDO401      0.0000
      5 H          26.5466   10.3730   17.6888 H      401  EDO401      0.0000
      6 H          26.0676    9.6316   19.2244 H      401  EDO401      0.0000
      7 H          25.5931   11.8927   19.1550 H      401  EDO401      0.0000
      8 H          28.9204   10.4009   18.3928 H      401  EDO401      0.0000
      9 H          28.2379    8.7580   18.4647 H      401  EDO401      0.0000
     10 H          28.4046   10.4802   20.7282 H      401  EDO401      0.0000
@<TRIPOS>BOND
     1     1     2    1
     2     1     3    1
     3     1     5    1
     4     1     6    1
     5     2     7    1
     6     3     4    1
     7     3     8    1
     8     3     9    1
     9     4    10    1

