EDO_1_A_405
  -ISIS-            3D

 10  9  0  0  0  0  0  0  0  0  1 V2000
   36.7220   -5.7620    4.0800 C   0  0  0  0  0
   37.7880   -6.3370    3.3050 O   0  0  0  0  0
   37.3670   -5.0070    5.2260 C   0  0  0  0  0
   38.2160   -3.9910    4.6980 O   0  0  0  0  0
   36.0571   -6.5645    4.4627 H   0  0  0  0  0
   36.1138   -5.0828    3.4463 H   0  0  0  0  0
   37.4016   -6.8220    2.5883 H   0  0  0  0  0
   37.9581   -5.6902    5.8715 H   0  0  0  0  0
   36.5942   -4.5353    5.8671 H   0  0  0  0  0
   38.7686   -4.4171    4.0524 H   0  0  0  0  0
  1  2  1  0  0  0
  1  3  1  0  0  0
  1  5  1  0  0  0
  1  6  1  0  0  0
  2  7  1  0  0  0
  3  4  1  0  0  0
  3  8  1  0  0  0
  3  9  1  0  0  0
  4 10  1  0  0  0
M  END
$$$$
