EDO_1_A_404
  -ISIS-            3D

 10  9  0  0  0  0  0  0  0  0  1 V2000
   19.5230  -11.3160   23.0050 C   0  0  0  0  0
   18.7480  -10.1040   23.1460 O   0  0  0  0  0
   18.8520  -12.4570   23.7680 C   0  0  0  0  0
   17.6010  -12.0040   24.3030 O   0  0  0  0  0
   20.5520  -11.1478   23.3874 H   0  0  0  0  0
   19.6077  -11.5698   21.9272 H   0  0  0  0  0
   19.2386   -9.3924   22.7567 H   0  0  0  0  0
   19.4931  -12.8055   24.6036 H   0  0  0  0  0
   18.6732  -13.3275   23.1035 H   0  0  0  0  0
   17.2707  -11.3070   23.7509 H   0  0  0  0  0
  1  2  1  0  0  0
  1  3  1  0  0  0
  1  5  1  0  0  0
  1  6  1  0  0  0
  2  7  1  0  0  0
  3  4  1  0  0  0
  3  8  1  0  0  0
  3  9  1  0  0  0
  4 10  1  0  0  0
M  END
$$$$
