@<TRIPOS>MOLECULE
EDO_1_A_406
 10 9 0 0 0
SMALL
NO_CHARGES

@<TRIPOS>ATOM
      1 C1         35.6150   -8.6660   36.0010 C.3    406  EDO406      0.0000
      2 O1         35.1980   -8.7000   34.6250 O.3    406  EDO406      0.0000
      3 C2         34.6980   -9.4520   36.9320 C.3    406  EDO406      0.0000
      4 O2         33.9050  -10.4210   36.2180 O.3    406  EDO406      0.0000
      5 H          35.7178   -7.6160   36.3484 H      406  EDO406      0.0000
      6 H          36.6342   -9.1051   36.0477 H      406  EDO406      0.0000
      7 H          34.8187   -7.8593   34.4059 H      406  EDO406      0.0000
      8 H          34.0031   -8.7557   37.4469 H      406  EDO406      0.0000
      9 H          35.2805   -9.9657   37.7242 H      406  EDO406      0.0000
     10 H          34.0269  -10.2556   35.2902 H      406  EDO406      0.0000
@<TRIPOS>BOND
     1     1     2    1
     2     1     3    1
     3     1     5    1
     4     1     6    1
     5     2     7    1
     6     3     4    1
     7     3     8    1
     8     3     9    1
     9     4    10    1

