DMS_2_A_401
  -ISIS-            3D

 10  9  0  0  0  0  0  0  0  0  1 V2000
   -7.0700  -28.0780  -21.3720 S   0  0  0  0  0
   -7.7590  -27.1490  -22.2690 O   0  0  0  0  0
   -5.7870  -28.8110  -22.3530 C   0  0  0  0  0
   -6.0600  -27.1160  -20.3030 C   0  0  0  0  0
   -5.1332  -29.4359  -21.7111 H   0  0  0  0  0
   -5.1780  -28.0245  -22.8446 H   0  0  0  0  0
   -6.2428  -29.4549  -23.1329 H   0  0  0  0  0
   -5.4063  -27.7806  -19.7018 H   0  0  0  0  0
   -6.7042  -26.5320  -19.6143 H   0  0  0  0  0
   -5.4317  -26.4144  -20.8894 H   0  0  0  0  0
  1  2  2  0  0  0
  1  3  1  0  0  0
  1  4  1  0  0  0
  3  5  1  0  0  0
  3  6  1  0  0  0
  3  7  1  0  0  0
  4  8  1  0  0  0
  4  9  1  0  0  0
  4 10  1  0  0  0
M  END
$$$$
