@<TRIPOS>MOLECULE
DMS_2_A_402
 10 9 0 0 0
SMALL
NO_CHARGES

@<TRIPOS>ATOM
      1 S          -6.1770   -1.0490    6.3000 S.o    402  DMS402      0.0000
      2 O          -7.1720   -0.8820    7.3860 O.2    402  DMS402      0.0000
      3 C1         -7.0490   -0.8380    4.7460 C.3    402  DMS402      0.0000
      4 C2         -5.8460   -2.7750    6.1590 C.3    402  DMS402      0.0000
      5 H          -6.3718   -1.0766    3.9007 H      402  DMS402      0.0000
      6 H          -7.3814    0.2162    4.6543 H      402  DMS402      0.0000
      7 H          -7.9365   -1.5025    4.7102 H      402  DMS402      0.0000
      8 H          -5.2009   -2.9647    5.2767 H      402  DMS402      0.0000
      9 H          -6.7927   -3.3436    6.0530 H      402  DMS402      0.0000
     10 H          -5.3167   -3.1233    7.0695 H      402  DMS402      0.0000
@<TRIPOS>BOND
     1     1     2    2
     2     1     3    1
     3     1     4    1
     4     3     5    1
     5     3     6    1
     6     3     7    1
     7     4     8    1
     8     4     9    1
     9     4    10    1

