DMS_1_A_405
  -ISIS-            3D

 10  9  0  0  0  0  0  0  0  0  1 V2000
    5.6670    0.4020   18.3330 S   0  0  0  0  0
    4.9830    1.6250   18.9010 O   0  0  0  0  0
    6.9860    1.0050   17.3340 C   0  0  0  0  0
    6.6640   -0.2440   19.6480 C   0  0  0  0  0
    7.6284    0.1623   17.0063 H   0  0  0  0  0
    7.5986    1.7380   17.8983 H   0  0  0  0  0
    6.5679    1.5034   16.4356 H   0  0  0  0  0
    7.3146   -1.0563   19.2645 H   0  0  0  0  0
    6.0047   -0.6582   20.4380 H   0  0  0  0  0
    7.2931    0.5569   20.0882 H   0  0  0  0  0
  1  2  2  0  0  0
  1  3  1  0  0  0
  1  4  1  0  0  0
  3  5  1  0  0  0
  3  6  1  0  0  0
  3  7  1  0  0  0
  4  8  1  0  0  0
  4  9  1  0  0  0
  4 10  1  0  0  0
M  END
$$$$
