@<TRIPOS>MOLECULE
DMS_1_A_403
 10 9 0 0 0
SMALL
NO_CHARGES

@<TRIPOS>ATOM
      1 S           2.3440  -18.8650    7.9900 S.o    403  DMS403      0.0000
      2 O           3.6060  -18.7540    8.8670 O.2    403  DMS403      0.0000
      3 C1          1.0320  -18.1020    8.9160 C.3    403  DMS403      0.0000
      4 C2          1.8150  -20.5490    8.1870 C.3    403  DMS403      0.0000
      5 H           0.0592  -18.2946    8.4191 H      403  DMS403      0.0000
      6 H           1.2025  -17.0067    8.9565 H      403  DMS403      0.0000
      7 H           1.0051  -18.5013    9.9506 H      403  DMS403      0.0000
      8 H           0.8218  -20.6894    7.7135 H      403  DMS403      0.0000
      9 H           1.7524  -20.8128    9.2627 H      403  DMS403      0.0000
     10 H           2.5449  -21.2222    7.6924 H      403  DMS403      0.0000
@<TRIPOS>BOND
     1     1     2    2
     2     1     3    1
     3     1     4    1
     4     3     5    1
     5     3     6    1
     6     3     7    1
     7     4     8    1
     8     4     9    1
     9     4    10    1

