@<TRIPOS>MOLECULE
2CL_1_A_201
 17 17 0 0 0
SMALL
NO_CHARGES

@<TRIPOS>ATOM
      1 C1        -43.8090  -30.6420    1.2430 C.ar   201  2CL201      0.0000
      2 C2        -44.7880  -29.6800    1.2930 C.ar   201  2CL201      0.0000
      3 C3        -44.4760  -28.3550    1.1640 C.ar   201  2CL201      0.0000
      4 C4        -43.1690  -27.9810    0.9950 C.ar   201  2CL201      0.0000
      5 C5        -42.1680  -28.9200    0.9660 C.ar   201  2CL201      0.0000
      6 C6        -42.4920  -30.2420    1.0650 C.ar   201  2CL201      0.0000
      7 C7        -44.1840  -32.1230    1.3710 C.3    201  2CL201      0.0000
      8 C8        -44.0620  -32.7430    2.7650 C.2    201  2CL201      0.0000
      9 CL1       -46.4710  -30.1550    1.5370 Cl     201  2CL201      0.0000
     10 CL2       -41.1990  -31.4550    1.0070 Cl     201  2CL201      0.0000
     11 O1        -44.3300  -33.9760    2.9070 O.co2  201  2CL201     -0.5000
     12 O2        -43.7130  -32.0360    3.7330 O.co2  201  2CL201     -0.5000
     13 H         -45.2659  -27.5858    1.1984 H      201  2CL201      0.0000
     14 H         -42.9164  -26.9120    0.8915 H      201  2CL201      0.0000
     15 H         -41.1182  -28.6022    0.8505 H      201  2CL201      0.0000
     16 H         -43.5491  -32.7152    0.6733 H      201  2CL201      0.0000
     17 H         -45.2133  -32.3048    0.9942 H      201  2CL201      0.0000
@<TRIPOS>BOND
     1     1     2   ar
     2     1     6   ar
     3     1     7    1
     4     2     3   ar
     5     2     9    1
     6     3     4   ar
     7     3    13    1
     8     4     5   ar
     9     4    14    1
    10     5     6   ar
    11     5    15    1
    12     6    10    1
    13     7     8    1
    14     7    16    1
    15     7    17    1
    16     8    11   ar
    17     8    12   ar

