DMS_2_A_407
  -ISIS-            3D

 10  9  0  0  0  0  0  0  0  0  1 V2000
  -28.7090   14.9810   17.3310 S   0  0  0  0  0
  -29.5180   14.7420   16.1350 O   0  0  0  0  0
  -29.8590   15.4110   18.6000 C   0  0  0  0  0
  -27.9780   16.5750   17.0810 C   0  0  0  0  0
  -29.3128   15.7602   19.5000 H   0  0  0  0  0
  -30.4594   14.5185   18.8707 H   0  0  0  0  0
  -30.5417   16.2125   18.2500 H   0  0  0  0  0
  -27.4677   16.9040   18.0092 H   0  0  0  0  0
  -28.7538   17.3183   16.8041 H   0  0  0  0  0
  -27.2297   16.5126   16.2646 H   0  0  0  0  0
  1  2  2  0  0  0
  1  3  1  0  0  0
  1  4  1  0  0  0
  3  5  1  0  0  0
  3  6  1  0  0  0
  3  7  1  0  0  0
  4  8  1  0  0  0
  4  9  1  0  0  0
  4 10  1  0  0  0
M  END
$$$$
