@<TRIPOS>MOLECULE
DMS_1_A_403
 10 9 0 0 0
SMALL
NO_CHARGES

@<TRIPOS>ATOM
      1 S           2.3370  -18.9660    8.1530 S.o    403  DMS403      0.0000
      2 O           3.5670  -18.8390    8.9820 O.2    403  DMS403      0.0000
      3 C1          1.1160  -18.0530    9.0480 C.3    403  DMS403      0.0000
      4 C2          1.7200  -20.5500    8.6590 C.3    403  DMS403      0.0000
      5 H           0.1067  -18.2687    8.6414 H      403  DMS403      0.0000
      6 H           1.3171  -16.9680    8.9345 H      403  DMS403      0.0000
      7 H           1.1424  -18.3084   10.1273 H      403  DMS403      0.0000
      8 H           0.6926  -20.6991    8.2681 H      403  DMS403      0.0000
      9 H           1.7106  -20.6373    9.7650 H      403  DMS403      0.0000
     10 H           2.3732  -21.3451    8.2443 H      403  DMS403      0.0000
@<TRIPOS>BOND
     1     1     2    2
     2     1     3    1
     3     1     4    1
     4     3     5    1
     5     3     6    1
     6     3     7    1
     7     4     8    1
     8     4     9    1
     9     4    10    1

