@<TRIPOS>MOLECULE
DMS_2_A_404
 10 9 0 0 0
SMALL
NO_CHARGES

@<TRIPOS>ATOM
      1 S         -21.2050   14.6130   -8.0940 S.o    404  DMS404      0.0000
      2 O         -22.6710   14.4720   -7.9320 O.2    404  DMS404      0.0000
      3 C1        -20.7490   13.2050   -9.0530 C.3    404  DMS404      0.0000
      4 C2        -20.5470   13.9840   -6.5790 C.3    404  DMS404      0.0000
      5 H         -19.6451   13.1003   -9.0729 H      404  DMS404      0.0000
      6 H         -21.1087   13.3404  -10.0941 H      404  DMS404      0.0000
      7 H         -21.2000   12.2807   -8.6381 H      404  DMS404      0.0000
      8 H         -19.4481   13.8592   -6.6652 H      404  DMS404      0.0000
      9 H         -21.0103   13.0103   -6.3211 H      404  DMS404      0.0000
     10 H         -20.7569   14.7059   -5.7626 H      404  DMS404      0.0000
@<TRIPOS>BOND
     1     1     2    2
     2     1     3    1
     3     1     4    1
     4     3     5    1
     5     3     6    1
     6     3     7    1
     7     4     8    1
     8     4     9    1
     9     4    10    1

