DMS_2_A_401
  -ISIS-            3D

 10  9  0  0  0  0  0  0  0  0  1 V2000
   -6.9630  -28.1170  -21.5650 S   0  0  0  0  0
   -7.5830  -27.0580  -22.3740 O   0  0  0  0  0
   -5.6440  -28.7560  -22.5560 C   0  0  0  0  0
   -5.9820  -27.2950  -20.3610 C   0  0  0  0  0
   -5.0311  -29.4616  -21.9585 H   0  0  0  0  0
   -5.0009  -27.9315  -22.9266 H   0  0  0  0  0
   -6.0680  -29.3000  -23.4248 H   0  0  0  0  0
   -5.3634  -28.0325  -19.8099 H   0  0  0  0  0
   -6.6447  -26.7765  -19.6382 H   0  0  0  0  0
   -5.3200  -26.5460  -20.8421 H   0  0  0  0  0
  1  2  2  0  0  0
  1  3  1  0  0  0
  1  4  1  0  0  0
  3  5  1  0  0  0
  3  6  1  0  0  0
  3  7  1  0  0  0
  4  8  1  0  0  0
  4  9  1  0  0  0
  4 10  1  0  0  0
M  END
$$$$
