@<TRIPOS>MOLECULE
DMS_1_A_405
 10 9 0 0 0
SMALL
NO_CHARGES

@<TRIPOS>ATOM
      1 S           5.8620    0.3340   18.2480 S.o    405  DMS405      0.0000
      2 O           5.0410    1.3130   19.0070 O.2    405  DMS405      0.0000
      3 C1          7.1330   -0.1300   19.3890 C.3    405  DMS405      0.0000
      4 C2          6.8190    1.3190   17.1730 C.3    405  DMS405      0.0000
      5 H           7.9064   -0.7296   18.8668 H      405  DMS405      0.0000
      6 H           6.6923   -0.7450   20.2002 H      405  DMS405      0.0000
      7 H           7.6042    0.7704   19.8344 H      405  DMS405      0.0000
      8 H           7.5969    0.6981   16.6836 H      405  DMS405      0.0000
      9 H           7.3074    2.1457   17.7290 H      405  DMS405      0.0000
     10 H           6.1656    1.7519   16.3880 H      405  DMS405      0.0000
@<TRIPOS>BOND
     1     1     2    2
     2     1     3    1
     3     1     4    1
     4     3     5    1
     5     3     6    1
     6     3     7    1
     7     4     8    1
     8     4     9    1
     9     4    10    1

