DMS_1_A_511
  -ISIS-            3D

 10  9  0  0  0  0  0  0  0  0  1 V2000
  -24.0610   -3.3090    9.7780 S   0  0  0  0  0
  -23.6100   -4.7060   10.0710 O   0  0  0  0  0
  -23.7710   -2.8890    8.0360 C   0  0  0  0  0
  -25.8700   -3.2460    9.8040 C   0  0  0  0  0
  -24.1710   -1.8759    7.8264 H   0  0  0  0  0
  -24.2724   -3.6311    7.3815 H   0  0  0  0  0
  -22.6803   -2.8998    7.8348 H   0  0  0  0  0
  -26.2105   -2.2245    9.5376 H   0  0  0  0  0
  -26.2300   -3.4960   10.8229 H   0  0  0  0  0
  -26.2832   -3.9772    9.0793 H   0  0  0  0  0
  1  2  2  0  0  0
  1  3  1  0  0  0
  1  4  1  0  0  0
  3  5  1  0  0  0
  3  6  1  0  0  0
  3  7  1  0  0  0
  4  8  1  0  0  0
  4  9  1  0  0  0
  4 10  1  0  0  0
M  END
$$$$
