@<TRIPOS>MOLECULE
DMS_1_A_510
 10 9 0 0 0
SMALL
NO_CHARGES

@<TRIPOS>ATOM
      1 S         -24.9470   -9.5800   38.3120 S.o    510  DMS510      0.0000
      2 O         -25.3830  -10.0280   36.9620 O.2    510  DMS510      0.0000
      3 C1        -23.8010  -10.8000   39.0080 C.3    510  DMS510      0.0000
      4 C2        -23.8340   -8.1640   38.1570 C.3    510  DMS510      0.0000
      5 H         -23.4238  -10.4393   39.9867 H      510  DMS510      0.0000
      6 H         -22.9493  -10.9561   38.3146 H      510  DMS510      0.0000
      7 H         -24.3357  -11.7606   39.1549 H      510  DMS510      0.0000
      8 H         -23.4572   -7.8757   39.1596 H      510  DMS510      0.0000
      9 H         -24.3885   -7.3101   37.7168 H      510  DMS510      0.0000
     10 H         -22.9801   -8.4251   37.4989 H      510  DMS510      0.0000
@<TRIPOS>BOND
     1     1     2    2
     2     1     3    1
     3     1     4    1
     4     3     5    1
     5     3     6    1
     6     3     7    1
     7     4     8    1
     8     4     9    1
     9     4    10    1

