DMS_1_A_513
  -ISIS-            3D

 10  9  0  0  0  0  0  0  0  0  1 V2000
    0.1050  -13.1050   17.8370 S   0  0  0  0  0
    0.6930  -12.1050   18.7880 O   0  0  0  0  0
   -0.9330  -12.1960   16.6800 C   0  0  0  0  0
    1.3400  -13.7180   16.6520 C   0  0  0  0  0
   -1.3455  -12.8923   15.9218 H   0  0  0  0  0
   -0.3390  -11.4061   16.1758 H   0  0  0  0  0
   -1.7715  -11.7251   17.2331 H   0  0  0  0  0
    0.8471  -14.3756   15.9070 H   0  0  0  0  0
    2.1100  -14.2998   17.1986 H   0  0  0  0  0
    1.8246  -12.8641   16.1355 H   0  0  0  0  0
  1  2  2  0  0  0
  1  3  1  0  0  0
  1  4  1  0  0  0
  3  5  1  0  0  0
  3  6  1  0  0  0
  3  7  1  0  0  0
  4  8  1  0  0  0
  4  9  1  0  0  0
  4 10  1  0  0  0
M  END
$$$$
