@<TRIPOS>MOLECULE
DMS_1_B_707
 10 9 0 0 0
SMALL
NO_CHARGES

@<TRIPOS>ATOM
      1 S           0.0610    0.0850   21.3430 S.o    707  DMS707      0.0000
      2 O          -1.1150   -0.6070   20.7290 O.2    707  DMS707      0.0000
      3 C1          1.4570    0.0130   20.1860 C.3    707  DMS707      0.0000
      4 C2         -0.2660    1.8720   21.3430 C.3    707  DMS707      0.0000
      5 H           2.3067    0.5980   20.5934 H      707  DMS707      0.0000
      6 H           1.1541    0.4306   19.2040 H      707  DMS707      0.0000
      7 H           1.7696   -1.0432   20.0557 H      707  DMS707      0.0000
      8 H           0.6266    2.4120   21.7197 H      707  DMS707      0.0000
      9 H          -1.1292    2.0856   22.0061 H      707  DMS707      0.0000
     10 H          -0.5001    2.2119   20.3133 H      707  DMS707      0.0000
@<TRIPOS>BOND
     1     1     2    2
     2     1     3    1
     3     1     4    1
     4     3     5    1
     5     3     6    1
     6     3     7    1
     7     4     8    1
     8     4     9    1
     9     4    10    1

