@<TRIPOS>MOLECULE
DMS_1_A_513
 10 9 0 0 0
SMALL
NO_CHARGES

@<TRIPOS>ATOM
      1 S           0.1050  -13.1050   17.8370 S.o    513  DMS513      0.0000
      2 O           0.6930  -12.1050   18.7880 O.2    513  DMS513      0.0000
      3 C1         -0.9330  -12.1960   16.6800 C.3    513  DMS513      0.0000
      4 C2          1.3400  -13.7180   16.6520 C.3    513  DMS513      0.0000
      5 H          -1.3455  -12.8923   15.9218 H      513  DMS513      0.0000
      6 H          -0.3390  -11.4061   16.1758 H      513  DMS513      0.0000
      7 H          -1.7715  -11.7251   17.2331 H      513  DMS513      0.0000
      8 H           0.8471  -14.3756   15.9070 H      513  DMS513      0.0000
      9 H           2.1100  -14.2998   17.1986 H      513  DMS513      0.0000
     10 H           1.8246  -12.8641   16.1355 H      513  DMS513      0.0000
@<TRIPOS>BOND
     1     1     2    2
     2     1     3    1
     3     1     4    1
     4     3     5    1
     5     3     6    1
     6     3     7    1
     7     4     8    1
     8     4     9    1
     9     4    10    1

