DMS_2_A_1004
  -ISIS-            3D

 10  9  0  0  0  0  0  0  0  0  1 V2000
   -2.3610  -18.9980   -8.2080 S   0  0  0  0  0
   -3.6420  -18.8860   -8.9490 O   0  0  0  0  0
   -1.2110  -18.1190   -9.2120 C   0  0  0  0  0
   -1.7640  -20.6050   -8.6650 C   0  0  0  0  0
   -0.1765  -18.3080   -8.8591 H   0  0  0  0  0
   -1.4159  -17.0314   -9.1354 H   0  0  0  0  0
   -1.2996  -18.4237  -10.2751 H   0  0  0  0  0
   -0.7141  -20.7289   -8.3290 H   0  0  0  0  0
   -1.8202  -20.7494   -9.7636 H   0  0  0  0  0
   -2.3865  -21.3791   -8.1710 H   0  0  0  0  0
  1  2  2  0  0  0
  1  3  1  0  0  0
  1  4  1  0  0  0
  3  5  1  0  0  0
  3  6  1  0  0  0
  3  7  1  0  0  0
  4  8  1  0  0  0
  4  9  1  0  0  0
  4 10  1  0  0  0
M  END
$$$$
