@<TRIPOS>MOLECULE
DMS_2_A_1002
 10 9 0 0 0
SMALL
NO_CHARGES

@<TRIPOS>ATOM
      1 S          -7.0770  -28.1970  -21.4720 S.o   1002  DMS1002      0.0000
      2 O          -7.7990  -27.2510  -22.3160 O.2   1002  DMS1002      0.0000
      3 C1         -5.7540  -28.8080  -22.4720 C.3   1002  DMS1002      0.0000
      4 C2         -6.1630  -27.2610  -20.2990 C.3   1002  DMS1002      0.0000
      5 H          -5.0859  -29.4484  -21.8605 H     1002  DMS1002      0.0000
      6 H          -5.1693  -27.9661  -22.8962 H     1002  DMS1002      0.0000
      7 H          -6.1693  -29.4148  -23.3025 H     1002  DMS1002      0.0000
      8 H          -5.4935  -27.9313  -19.7219 H     1002  DMS1002      0.0000
      9 H          -6.8635  -26.7646  -19.5966 H     1002  DMS1002      0.0000
     10 H          -5.5556  -26.4864  -20.8104 H     1002  DMS1002      0.0000
@<TRIPOS>BOND
     1     1     2    2
     2     1     3    1
     3     1     4    1
     4     3     5    1
     5     3     6    1
     6     3     7    1
     7     4     8    1
     8     4     9    1
     9     4    10    1

