1PE_1_A_1317
  -ISIS-            3D

 38 37  0  0  0  0  0  0  0  0  1 V2000
   13.1730   -5.5790  -37.0590 O   0  0  0  0  0
   14.2520   -5.0190  -36.3230 C   0  0  0  0  0
   14.0930   -5.2710  -34.8520 C   0  0  0  0  0
   15.2270   -4.7580  -34.1580 O   0  0  0  0  0
   14.3920   -5.4920  -32.0360 C   0  0  0  0  0
   14.9380   -4.3430  -32.8250 C   0  0  0  0  0
   15.2400   -6.6170  -32.2150 O   0  0  0  0  0
   15.9080   -8.6530  -31.2740 C   0  0  0  0  0
   15.6850   -7.2100  -31.0030 C   0  0  0  0  0
   16.4690   -8.7570  -32.5650 O   0  0  0  0  0
   18.0240  -10.2840  -33.4890 C   0  0  0  0  0
   16.6280  -10.0980  -33.0050 C   0  0  0  0  0
   18.0970  -10.1940  -34.8970 O   0  0  0  0  0
   19.9380   -8.8140  -35.5780 C   0  0  0  0  0
   19.4420  -10.2140  -35.3750 C   0  0  0  0  0
   21.3330   -8.7790  -35.8640 O   0  0  0  0  0
   12.4292   -4.9937  -36.9995 H   0  0  0  0  0
   14.3263   -3.9308  -36.5334 H   0  0  0  0  0
   15.1952   -5.4790  -36.6852 H   0  0  0  0  0
   13.9951   -6.3589  -34.6556 H   0  0  0  0  0
   13.1629   -4.7753  -34.5021 H   0  0  0  0  0
   13.3613   -5.7605  -32.3435 H   0  0  0  0  0
   14.3281   -5.1973  -30.9680 H   0  0  0  0  0
   14.2324   -3.4865  -32.8341 H   0  0  0  0  0
   15.8787   -3.9755  -32.3647 H   0  0  0  0  0
   14.9393   -9.1965  -31.2447 H   0  0  0  0  0
   16.5804   -9.1020  -30.5136 H   0  0  0  0  0
   14.9378   -7.0971  -30.1900 H   0  0  0  0  0
   16.6208   -6.7098  -30.6775 H   0  0  0  0  0
   18.3834  -11.2902  -33.1832 H   0  0  0  0  0
   18.7022   -9.5467  -33.0114 H   0  0  0  0  0
   15.8831  -10.3210  -33.7959 H   0  0  0  0  0
   16.4280  -10.8062  -32.1734 H   0  0  0  0  0
   19.7680   -8.2118  -34.6616 H   0  0  0  0  0
   19.3733   -8.3099  -36.3910 H   0  0  0  0  0
   19.4594  -10.7566  -36.3432 H   0  0  0  0  0
   20.1008  -10.7829  -34.6868 H   0  0  0  0  0
   21.4554   -8.9708  -36.7845 H   0  0  0  0  0
  1  2  1  0  0  0
  1 17  1  0  0  0
  2  3  1  0  0  0
  2 18  1  0  0  0
  2 19  1  0  0  0
  3  4  1  0  0  0
  3 20  1  0  0  0
  3 21  1  0  0  0
  4  6  1  0  0  0
  5  6  1  0  0  0
  5  7  1  0  0  0
  5 22  1  0  0  0
  5 23  1  0  0  0
  6 24  1  0  0  0
  6 25  1  0  0  0
  7  9  1  0  0  0
  8  9  1  0  0  0
  8 10  1  0  0  0
  8 26  1  0  0  0
  8 27  1  0  0  0
  9 28  1  0  0  0
  9 29  1  0  0  0
 10 12  1  0  0  0
 11 12  1  0  0  0
 11 13  1  0  0  0
 11 30  1  0  0  0
 11 31  1  0  0  0
 12 32  1  0  0  0
 12 33  1  0  0  0
 13 15  1  0  0  0
 14 15  1  0  0  0
 14 16  1  0  0  0
 14 34  1  0  0  0
 14 35  1  0  0  0
 15 36  1  0  0  0
 15 37  1  0  0  0
 16 38  1  0  0  0
M  END
$$$$
