@<TRIPOS>MOLECULE
1PE_1_A_1317
 38 37 0 0 0
SMALL
NO_CHARGES

@<TRIPOS>ATOM
      1 OH2        13.1730   -5.5790  -37.0590 O.3   1317  1PE1317      0.0000
      2 C12        14.2520   -5.0190  -36.3230 C.3   1317  1PE1317      0.0000
      3 C22        14.0930   -5.2710  -34.8520 C.3   1317  1PE1317      0.0000
      4 OH3        15.2270   -4.7580  -34.1580 O.3   1317  1PE1317      0.0000
      5 C13        14.3920   -5.4920  -32.0360 C.3   1317  1PE1317      0.0000
      6 C23        14.9380   -4.3430  -32.8250 C.3   1317  1PE1317      0.0000
      7 OH4        15.2400   -6.6170  -32.2150 O.3   1317  1PE1317      0.0000
      8 C14        15.9080   -8.6530  -31.2740 C.3   1317  1PE1317      0.0000
      9 C24        15.6850   -7.2100  -31.0030 C.3   1317  1PE1317      0.0000
     10 OH5        16.4690   -8.7570  -32.5650 O.3   1317  1PE1317      0.0000
     11 C15        18.0240  -10.2840  -33.4890 C.3   1317  1PE1317      0.0000
     12 C25        16.6280  -10.0980  -33.0050 C.3   1317  1PE1317      0.0000
     13 OH6        18.0970  -10.1940  -34.8970 O.3   1317  1PE1317      0.0000
     14 C16        19.9380   -8.8140  -35.5780 C.3   1317  1PE1317      0.0000
     15 C26        19.4420  -10.2140  -35.3750 C.3   1317  1PE1317      0.0000
     16 OH7        21.3330   -8.7790  -35.8640 O.3   1317  1PE1317      0.0000
     17 H          12.4292   -4.9937  -36.9995 H     1317  1PE1317      0.0000
     18 H          14.3263   -3.9308  -36.5334 H     1317  1PE1317      0.0000
     19 H          15.1952   -5.4790  -36.6852 H     1317  1PE1317      0.0000
     20 H          13.9951   -6.3589  -34.6556 H     1317  1PE1317      0.0000
     21 H          13.1629   -4.7753  -34.5021 H     1317  1PE1317      0.0000
     22 H          13.3613   -5.7605  -32.3435 H     1317  1PE1317      0.0000
     23 H          14.3281   -5.1973  -30.9680 H     1317  1PE1317      0.0000
     24 H          14.2324   -3.4865  -32.8341 H     1317  1PE1317      0.0000
     25 H          15.8787   -3.9755  -32.3647 H     1317  1PE1317      0.0000
     26 H          14.9393   -9.1965  -31.2447 H     1317  1PE1317      0.0000
     27 H          16.5804   -9.1020  -30.5136 H     1317  1PE1317      0.0000
     28 H          14.9378   -7.0971  -30.1900 H     1317  1PE1317      0.0000
     29 H          16.6208   -6.7098  -30.6775 H     1317  1PE1317      0.0000
     30 H          18.3834  -11.2902  -33.1832 H     1317  1PE1317      0.0000
     31 H          18.7022   -9.5467  -33.0114 H     1317  1PE1317      0.0000
     32 H          15.8831  -10.3210  -33.7959 H     1317  1PE1317      0.0000
     33 H          16.4280  -10.8062  -32.1734 H     1317  1PE1317      0.0000
     34 H          19.7680   -8.2118  -34.6616 H     1317  1PE1317      0.0000
     35 H          19.3733   -8.3099  -36.3910 H     1317  1PE1317      0.0000
     36 H          19.4594  -10.7566  -36.3432 H     1317  1PE1317      0.0000
     37 H          20.1008  -10.7829  -34.6868 H     1317  1PE1317      0.0000
     38 H          21.4554   -8.9708  -36.7845 H     1317  1PE1317      0.0000
@<TRIPOS>BOND
     1     1     2    1
     2     1    17    1
     3     2     3    1
     4     2    18    1
     5     2    19    1
     6     3     4    1
     7     3    20    1
     8     3    21    1
     9     4     6    1
    10     5     6    1
    11     5     7    1
    12     5    22    1
    13     5    23    1
    14     6    24    1
    15     6    25    1
    16     7     9    1
    17     8     9    1
    18     8    10    1
    19     8    26    1
    20     8    27    1
    21     9    28    1
    22     9    29    1
    23    10    12    1
    24    11    12    1
    25    11    13    1
    26    11    30    1
    27    11    31    1
    28    12    32    1
    29    12    33    1
    30    13    15    1
    31    14    15    1
    32    14    16    1
    33    14    34    1
    34    14    35    1
    35    15    36    1
    36    15    37    1
    37    16    38    1

