@<TRIPOS>MOLECULE
PGE_1_A_1316
 24 23 0 0 0
SMALL
NO_CHARGES

@<TRIPOS>ATOM
      1 C1         36.5820   11.2220  -38.5500 C.3   1316  PGE1316      0.0000
      2 O1         36.7910   11.1930  -39.9490 O.3   1316  PGE1316      0.0000
      3 C2         35.7270   10.0670  -38.1130 C.3   1316  PGE1316      0.0000
      4 O2         36.2990    8.8570  -38.5790 O.3   1316  PGE1316      0.0000
      5 C3         36.2400    7.7980  -37.6370 C.3   1316  PGE1316      0.0000
      6 C4         37.5120    7.0160  -37.7210 C.3   1316  PGE1316      0.0000
      7 O4         41.2400    7.8640  -36.2650 O.3   1316  PGE1316      0.0000
      8 C6         40.9400    8.3180  -37.5840 C.3   1316  PGE1316      0.0000
      9 C5         39.7750    7.5840  -38.1810 C.3   1316  PGE1316      0.0000
     10 O3         38.5990    7.8900  -37.4440 O.3   1316  PGE1316      0.0000
     11 H          36.1035   12.1836  -38.2677 H     1316  PGE1316      0.0000
     12 H          37.5641   11.1808  -38.0313 H     1316  PGE1316      0.0000
     13 H          37.4279   11.8593  -40.1739 H     1316  PGE1316      0.0000
     14 H          34.7005   10.1600  -38.5241 H     1316  PGE1316      0.0000
     15 H          35.6342   10.0871  -37.0078 H     1316  PGE1316      0.0000
     16 H          35.3615    7.1583  -37.8604 H     1316  PGE1316      0.0000
     17 H          36.1162    8.1712  -36.5996 H     1316  PGE1316      0.0000
     18 H          37.6073    6.5776  -38.7370 H     1316  PGE1316      0.0000
     19 H          37.5182    6.1767  -36.9954 H     1316  PGE1316      0.0000
     20 H          41.9062    8.4291  -35.8972 H     1316  PGE1316      0.0000
     21 H          41.8380    8.1772  -38.2229 H     1316  PGE1316      0.0000
     22 H          40.7298    9.4088  -37.5616 H     1316  PGE1316      0.0000
     23 H          39.9719    6.4913  -38.1556 H     1316  PGE1316      0.0000
     24 H          39.6331    7.8781  -39.2421 H     1316  PGE1316      0.0000
@<TRIPOS>BOND
     1     1     2    1
     2     1     3    1
     3     1    11    1
     4     1    12    1
     5     2    13    1
     6     3     4    1
     7     3    14    1
     8     3    15    1
     9     4     5    1
    10     5     6    1
    11     5    16    1
    12     5    17    1
    13     6    10    1
    14     6    18    1
    15     6    19    1
    16     7     8    1
    17     7    20    1
    18     8     9    1
    19     8    21    1
    20     8    22    1
    21     9    10    1
    22     9    23    1
    23     9    24    1

