PGE_1_A_1316
  -ISIS-            3D

 24 23  0  0  0  0  0  0  0  0  1 V2000
   36.5820   11.2220  -38.5500 C   0  0  0  0  0
   36.7910   11.1930  -39.9490 O   0  0  0  0  0
   35.7270   10.0670  -38.1130 C   0  0  0  0  0
   36.2990    8.8570  -38.5790 O   0  0  0  0  0
   36.2400    7.7980  -37.6370 C   0  0  0  0  0
   37.5120    7.0160  -37.7210 C   0  0  0  0  0
   41.2400    7.8640  -36.2650 O   0  0  0  0  0
   40.9400    8.3180  -37.5840 C   0  0  0  0  0
   39.7750    7.5840  -38.1810 C   0  0  0  0  0
   38.5990    7.8900  -37.4440 O   0  0  0  0  0
   36.1035   12.1836  -38.2677 H   0  0  0  0  0
   37.5641   11.1808  -38.0313 H   0  0  0  0  0
   37.4279   11.8593  -40.1739 H   0  0  0  0  0
   34.7005   10.1600  -38.5241 H   0  0  0  0  0
   35.6342   10.0871  -37.0078 H   0  0  0  0  0
   35.3615    7.1583  -37.8604 H   0  0  0  0  0
   36.1162    8.1712  -36.5996 H   0  0  0  0  0
   37.6073    6.5776  -38.7370 H   0  0  0  0  0
   37.5182    6.1767  -36.9954 H   0  0  0  0  0
   41.9062    8.4291  -35.8972 H   0  0  0  0  0
   41.8380    8.1772  -38.2229 H   0  0  0  0  0
   40.7298    9.4088  -37.5616 H   0  0  0  0  0
   39.9719    6.4913  -38.1556 H   0  0  0  0  0
   39.6331    7.8781  -39.2421 H   0  0  0  0  0
  1  2  1  0  0  0
  1  3  1  0  0  0
  1 11  1  0  0  0
  1 12  1  0  0  0
  2 13  1  0  0  0
  3  4  1  0  0  0
  3 14  1  0  0  0
  3 15  1  0  0  0
  4  5  1  0  0  0
  5  6  1  0  0  0
  5 16  1  0  0  0
  5 17  1  0  0  0
  6 10  1  0  0  0
  6 18  1  0  0  0
  6 19  1  0  0  0
  7  8  1  0  0  0
  7 20  1  0  0  0
  8  9  1  0  0  0
  8 21  1  0  0  0
  8 22  1  0  0  0
  9 10  1  0  0  0
  9 23  1  0  0  0
  9 24  1  0  0  0
M  END
$$$$
