PGE_1_A_1314
  -ISIS-            3D

 24 23  0  0  0  0  0  0  0  0  1 V2000
   15.9510   17.3790  -23.3550 C   0  0  0  0  0
   14.7660   18.0010  -23.8320 O   0  0  0  0  0
   17.0150   17.2990  -24.4180 C   0  0  0  0  0
   18.2180   16.7680  -23.8570 O   0  0  0  0  0
   18.8040   15.7470  -24.6620 C   0  0  0  0  0
   20.2910   15.9140  -24.7470 C   0  0  0  0  0
   22.1300   13.2560  -24.2380 O   0  0  0  0  0
   22.8870   13.8140  -25.3030 C   0  0  0  0  0
   22.2550   15.0790  -25.7850 C   0  0  0  0  0
   20.8430   14.9680  -25.6640 O   0  0  0  0  0
   15.7111   16.3676  -22.9632 H   0  0  0  0  0
   16.3272   17.9701  -22.4939 H   0  0  0  0  0
   14.2757   17.3690  -24.3412 H   0  0  0  0  0
   17.2297   18.3046  -24.8355 H   0  0  0  0  0
   16.6374   16.6731  -25.2525 H   0  0  0  0  0
   18.3975   15.7717  -25.6945 H   0  0  0  0  0
   18.5417   14.7560  -24.2367 H   0  0  0  0  0
   20.7435   15.7785  -23.7420 H   0  0  0  0  0
   20.5300   16.9433  -25.0900 H   0  0  0  0  0
   22.5132   12.4220  -23.9992 H   0  0  0  0  0
   22.9276   13.0767  -26.1336 H   0  0  0  0  0
   23.9324   13.9934  -24.9749 H   0  0  0  0  0
   22.5180   15.2716  -26.8455 H   0  0  0  0  0
   22.6377   15.9428  -25.2026 H   0  0  0  0  0
  1  2  1  0  0  0
  1  3  1  0  0  0
  1 11  1  0  0  0
  1 12  1  0  0  0
  2 13  1  0  0  0
  3  4  1  0  0  0
  3 14  1  0  0  0
  3 15  1  0  0  0
  4  5  1  0  0  0
  5  6  1  0  0  0
  5 16  1  0  0  0
  5 17  1  0  0  0
  6 10  1  0  0  0
  6 18  1  0  0  0
  6 19  1  0  0  0
  7  8  1  0  0  0
  7 20  1  0  0  0
  8  9  1  0  0  0
  8 21  1  0  0  0
  8 22  1  0  0  0
  9 10  1  0  0  0
  9 23  1  0  0  0
  9 24  1  0  0  0
M  END
$$$$
