@<TRIPOS>MOLECULE
BTB_1_B_406
 33 32 0 0 0
SMALL
NO_CHARGES

@<TRIPOS>ATOM
      1 C1         23.2620   -8.1740  -11.7070 C.3    406  BTB406      0.0000
      2 O1         22.9290   -9.5460  -11.5670 O.3    406  BTB406      0.0000
      3 C2         22.1820   -7.4010  -12.4700 C.3    406  BTB406      0.0000
      4 C3         22.1140   -7.9460  -13.9070 C.3    406  BTB406      0.0000
      5 O3         23.3290   -7.8190  -14.6340 O.3    406  BTB406      0.0000
      6 C4         22.6290   -5.9340  -12.4650 C.3    406  BTB406      0.0000
      7 O4         21.8480   -5.0910  -13.2980 O.3    406  BTB406      0.0000
      8 N          20.8210   -7.5950  -11.8280 N.pl3  406  BTB406      0.0000
      9 C5         20.7150   -7.1380  -10.4330 C.3    406  BTB406      0.0000
     10 C6         19.7140   -7.8840   -9.5790 C.3    406  BTB406      0.0000
     11 O6         19.8970   -9.2820   -9.7130 O.3    406  BTB406      0.0000
     12 C7         19.5910   -7.3240  -12.5860 C.3    406  BTB406      0.0000
     13 C8         18.6120   -8.4770  -12.6700 C.3    406  BTB406      0.0000
     14 O8         19.2460   -9.6490  -13.1240 O.3    406  BTB406      0.0000
     15 H          24.2429   -8.0874  -12.2228 H      406  BTB406      0.0000
     16 H          23.4362   -7.7539  -10.6969 H      406  BTB406      0.0000
     17 H          23.3716  -10.0306  -12.2518 H      406  BTB406      0.0000
     18 H          21.3441   -7.4179  -14.5013 H      406  BTB406      0.0000
     19 H          21.8198   -9.0164  -13.8997 H      406  BTB406      0.0000
     20 H          23.1603   -8.0427  -15.5398 H      406  BTB406      0.0000
     21 H          23.6849   -5.8677  -12.8070 H      406  BTB406      0.0000
     22 H          22.6211   -5.5240  -11.4334 H      406  BTB406      0.0000
     23 H          22.2415   -4.2282  -13.3085 H      406  BTB406      0.0000
     24 H          20.4851   -6.0499  -10.4081 H      406  BTB406      0.0000
     25 H          21.6956   -7.2357   -9.9254 H      406  BTB406      0.0000
     26 H          18.6727   -7.6211   -9.8540 H      406  BTB406      0.0000
     27 H          19.8326   -7.6059   -8.5103 H      406  BTB406      0.0000
     28 H          20.6100   -9.4198  -10.3310 H      406  BTB406      0.0000
     29 H          19.8164   -6.9888  -13.6142 H      406  BTB406      0.0000
     30 H          19.0677   -6.4479  -12.1438 H      406  BTB406      0.0000
     31 H          17.7884   -8.2254  -13.3714 H      406  BTB406      0.0000
     32 H          18.1296   -8.6788  -11.6929 H      406  BTB406      0.0000
     33 H          19.9822   -9.7952  -12.5391 H      406  BTB406      0.0000
@<TRIPOS>BOND
     1     1     2    1
     2     1     3    1
     3     1    15    1
     4     1    16    1
     5     2    17    1
     6     3     4    1
     7     3     6    1
     8     3     8    1
     9     4     5    1
    10     4    18    1
    11     4    19    1
    12     5    20    1
    13     6     7    1
    14     6    21    1
    15     6    22    1
    16     7    23    1
    17     8     9    1
    18     8    12    1
    19     9    10    1
    20     9    24    1
    21     9    25    1
    22    10    11    1
    23    10    26    1
    24    10    27    1
    25    11    28    1
    26    12    13    1
    27    12    29    1
    28    12    30    1
    29    13    14    1
    30    13    31    1
    31    13    32    1
    32    14    33    1

