BTB_1_B_406
  -ISIS-            3D

 33 32  0  0  0  0  0  0  0  0  1 V2000
   23.2620   -8.1740  -11.7070 C   0  0  0  0  0
   22.9290   -9.5460  -11.5670 O   0  0  0  0  0
   22.1820   -7.4010  -12.4700 C   0  0  0  0  0
   22.1140   -7.9460  -13.9070 C   0  0  0  0  0
   23.3290   -7.8190  -14.6340 O   0  0  0  0  0
   22.6290   -5.9340  -12.4650 C   0  0  0  0  0
   21.8480   -5.0910  -13.2980 O   0  0  0  0  0
   20.8210   -7.5950  -11.8280 N   0  0  0  0  0
   20.7150   -7.1380  -10.4330 C   0  0  0  0  0
   19.7140   -7.8840   -9.5790 C   0  0  0  0  0
   19.8970   -9.2820   -9.7130 O   0  0  0  0  0
   19.5910   -7.3240  -12.5860 C   0  0  0  0  0
   18.6120   -8.4770  -12.6700 C   0  0  0  0  0
   19.2460   -9.6490  -13.1240 O   0  0  0  0  0
   24.2429   -8.0874  -12.2228 H   0  0  0  0  0
   23.4362   -7.7539  -10.6969 H   0  0  0  0  0
   23.3716  -10.0306  -12.2518 H   0  0  0  0  0
   21.3441   -7.4179  -14.5013 H   0  0  0  0  0
   21.8198   -9.0164  -13.8997 H   0  0  0  0  0
   23.1603   -8.0427  -15.5398 H   0  0  0  0  0
   23.6849   -5.8677  -12.8070 H   0  0  0  0  0
   22.6211   -5.5240  -11.4334 H   0  0  0  0  0
   22.2415   -4.2282  -13.3085 H   0  0  0  0  0
   20.4851   -6.0499  -10.4081 H   0  0  0  0  0
   21.6956   -7.2357   -9.9254 H   0  0  0  0  0
   18.6727   -7.6211   -9.8540 H   0  0  0  0  0
   19.8326   -7.6059   -8.5103 H   0  0  0  0  0
   20.6100   -9.4198  -10.3310 H   0  0  0  0  0
   19.8164   -6.9888  -13.6142 H   0  0  0  0  0
   19.0677   -6.4479  -12.1438 H   0  0  0  0  0
   17.7884   -8.2254  -13.3714 H   0  0  0  0  0
   18.1296   -8.6788  -11.6929 H   0  0  0  0  0
   19.9822   -9.7952  -12.5391 H   0  0  0  0  0
  1  2  1  0  0  0
  1  3  1  0  0  0
  1 15  1  0  0  0
  1 16  1  0  0  0
  2 17  1  0  0  0
  3  4  1  0  0  0
  3  6  1  0  0  0
  3  8  1  0  0  0
  4  5  1  0  0  0
  4 18  1  0  0  0
  4 19  1  0  0  0
  5 20  1  0  0  0
  6  7  1  0  0  0
  6 21  1  0  0  0
  6 22  1  0  0  0
  7 23  1  0  0  0
  8  9  1  0  0  0
  8 12  1  0  0  0
  9 10  1  0  0  0
  9 24  1  0  0  0
  9 25  1  0  0  0
 10 11  1  0  0  0
 10 26  1  0  0  0
 10 27  1  0  0  0
 11 28  1  0  0  0
 12 13  1  0  0  0
 12 29  1  0  0  0
 12 30  1  0  0  0
 13 14  1  0  0  0
 13 31  1  0  0  0
 13 32  1  0  0  0
 14 33  1  0  0  0
M  END
$$$$
