@<TRIPOS>MOLECULE
DMS_1_B_402
 10 9 0 0 0
SMALL
NO_CHARGES

@<TRIPOS>ATOM
      1 S          13.1680  -11.0180    7.8850 S.o    402  DMS402      0.0000
      2 O          12.1040  -10.1780    8.3670 O.2    402  DMS402      0.0000
      3 C1         13.7820  -11.8200    9.3450 C.3    402  DMS402      0.0000
      4 C2         12.4140  -12.4180    7.1290 C.3    402  DMS402      0.0000
      5 H          14.5188  -12.5999    9.0636 H      402  DMS402      0.0000
      6 H          12.9500  -12.2866    9.9116 H      402  DMS402      0.0000
      7 H          14.2844  -11.0717    9.9917 H      402  DMS402      0.0000
      8 H          13.1856  -13.1773    6.8873 H      402  DMS402      0.0000
      9 H          11.9161  -12.1045    6.1886 H      402  DMS402      0.0000
     10 H          11.6566  -12.8652    7.8052 H      402  DMS402      0.0000
@<TRIPOS>BOND
     1     1     2    2
     2     1     3    1
     3     1     4    1
     4     3     5    1
     5     3     6    1
     6     3     7    1
     7     4     8    1
     8     4     9    1
     9     4    10    1

