DMS_1_A_403
  -ISIS-            3D

 10  9  0  0  0  0  0  0  0  0  1 V2000
  -21.8010   -9.8130    9.1860 S   0  0  0  0  0
  -21.0810  -10.9850    8.6640 O   0  0  0  0  0
  -20.5670   -8.6250    9.5970 C   0  0  0  0  0
  -22.3730  -10.2560   10.7990 C   0  0  0  0  0
  -21.0338   -7.7623   10.1149 H   0  0  0  0  0
  -20.0769   -8.2641    8.6697 H   0  0  0  0  0
  -19.8004   -9.0789   10.2581 H   0  0  0  0  0
  -22.8138   -9.3686   11.2976 H   0  0  0  0  0
  -21.5331  -10.6427   11.4119 H   0  0  0  0  0
  -23.1503  -11.0426   10.7126 H   0  0  0  0  0
  1  2  2  0  0  0
  1  3  1  0  0  0
  1  4  1  0  0  0
  3  5  1  0  0  0
  3  6  1  0  0  0
  3  7  1  0  0  0
  4  8  1  0  0  0
  4  9  1  0  0  0
  4 10  1  0  0  0
M  END
$$$$
