@<TRIPOS>MOLECULE
DMS_1_B_404
 10 9 0 0 0
SMALL
NO_CHARGES

@<TRIPOS>ATOM
      1 S          -6.9220    3.4670   12.1300 S.o    404  DMS404      0.0000
      2 O          -5.4800    3.1580   12.1280 O.2    404  DMS404      0.0000
      3 C1         -7.3470    4.0290   13.7150 C.3    404  DMS404      0.0000
      4 C2         -7.7090    1.8940   12.1970 C.3    404  DMS404      0.0000
      5 H          -8.4486    4.1246   13.8019 H      404  DMS404      0.0000
      6 H          -6.8909    5.0251   13.8883 H      404  DMS404      0.0000
      7 H          -6.9776    3.3276   14.4914 H      404  DMS404      0.0000
      8 H          -8.8030    2.0237   12.3259 H      404  DMS404      0.0000
      9 H          -7.3085    1.2930   13.0394 H      404  DMS404      0.0000
     10 H          -7.5256    1.3494   11.2481 H      404  DMS404      0.0000
@<TRIPOS>BOND
     1     1     2    2
     2     1     3    1
     3     1     4    1
     4     3     5    1
     5     3     6    1
     6     3     7    1
     7     4     8    1
     8     4     9    1
     9     4    10    1

