DMS_1_A_404
  -ISIS-            3D

 10  9  0  0  0  0  0  0  0  0  1 V2000
    6.2160   -0.9910   -6.3910 S   0  0  0  0  0
    7.1380   -0.6100   -7.5110 O   0  0  0  0  0
    5.6660   -2.7210   -6.3000 C   0  0  0  0  0
    7.2080   -0.8910   -4.8630 C   0  0  0  0  0
    5.0557   -2.8691   -5.3859 H   0  0  0  0  0
    6.5479   -3.3932   -6.2742 H   0  0  0  0  0
    5.0515   -2.9546   -7.1932 H   0  0  0  0  0
    6.5658   -1.1228   -3.9889 H   0  0  0  0  0
    7.6134    0.1359   -4.7564 H   0  0  0  0  0
    8.0466   -1.6155   -4.9122 H   0  0  0  0  0
  1  2  2  0  0  0
  1  3  1  0  0  0
  1  4  1  0  0  0
  3  5  1  0  0  0
  3  6  1  0  0  0
  3  7  1  0  0  0
  4  8  1  0  0  0
  4  9  1  0  0  0
  4 10  1  0  0  0
M  END
$$$$
