@<TRIPOS>MOLECULE
DMS_2_A_403
 10 9 0 0 0
SMALL
NO_CHARGES

@<TRIPOS>ATOM
      1 S         -16.9730   24.8700   22.1620 S.o    403  DMS403      0.0000
      2 O         -17.8340   25.8030   21.4060 O.2    403  DMS403      0.0000
      3 C1        -15.6470   24.2610   21.0870 C.3    403  DMS403      0.0000
      4 C2        -16.0350   25.8110   23.3790 C.3    403  DMS403      0.0000
      5 H         -14.9605   23.6171   21.6738 H      403  DMS403      0.0000
      6 H         -15.0832   25.1173   20.6633 H      403  DMS403      0.0000
      7 H         -16.0891   23.6669   20.2613 H      403  DMS403      0.0000
      8 H         -15.3370   25.1348   23.9136 H      403  DMS403      0.0000
      9 H         -16.7344   26.2652   24.1104 H      403  DMS403      0.0000
     10 H         -15.4599   26.6138   22.8736 H      403  DMS403      0.0000
@<TRIPOS>BOND
     1     1     2    2
     2     1     3    1
     3     1     4    1
     4     3     5    1
     5     3     6    1
     6     3     7    1
     7     4     8    1
     8     4     9    1
     9     4    10    1

