DMS_1_A_403
  -ISIS-            3D

 10  9  0  0  0  0  0  0  0  0  1 V2000
   16.9730   24.8700  -22.1620 S   0  0  0  0  0
   17.8340   25.8030  -21.4060 O   0  0  0  0  0
   15.6470   24.2610  -21.0870 C   0  0  0  0  0
   16.0350   25.8110  -23.3790 C   0  0  0  0  0
   14.9605   23.6171  -21.6738 H   0  0  0  0  0
   15.0832   25.1173  -20.6633 H   0  0  0  0  0
   16.0891   23.6669  -20.2613 H   0  0  0  0  0
   15.3370   25.1348  -23.9136 H   0  0  0  0  0
   16.7344   26.2652  -24.1104 H   0  0  0  0  0
   15.4599   26.6138  -22.8736 H   0  0  0  0  0
  1  2  2  0  0  0
  1  3  1  0  0  0
  1  4  1  0  0  0
  3  5  1  0  0  0
  3  6  1  0  0  0
  3  7  1  0  0  0
  4  8  1  0  0  0
  4  9  1  0  0  0
  4 10  1  0  0  0
M  END
$$$$
