@<TRIPOS>MOLECULE
PEE_1_B_301
 50 49 0 0 0
SMALL
NO_CHARGES

@<TRIPOS>ATOM
      1 C2        118.9420  117.5140  111.1550 C.3    301  PEE301      0.0000
      2 C1        117.7870  116.5230  111.2770 C.3    301  PEE301      0.0000
      3 N         113.4640  112.6220  112.2390 N.3    301  PEE301      1.0000
      4 C3        120.2900  116.8000  111.3450 C.3    301  PEE301      0.0000
      5 C4        114.8140  114.4480  111.3090 C.3    301  PEE301      0.0000
      6 C5        114.2670  113.0430  111.0290 C.3    301  PEE301      0.0000
      7 C10       118.9450  119.5130  109.9160 C.2    301  PEE301      0.0000
      8 C11       119.5280  120.2070  108.7250 C.3    301  PEE301      0.0000
      9 C12       119.6870  121.6910  109.0550 C.3    301  PEE301      0.0000
     10 C13       120.5850  122.3740  108.0400 C.3    301  PEE301      0.0000
     11 C30       122.3780  117.4760  110.5010 C.2    301  PEE301      0.0000
     12 C31       122.7470  118.8320  109.9490 C.3    301  PEE301      0.0000
     13 C32       124.0870  118.7270  109.2340 C.3    301  PEE301      0.0000
     14 C33       124.2890  119.8790  108.2680 C.3    301  PEE301      0.0000
     15 O4        118.5010  120.1000  110.8790 O.2    301  PEE301      0.0000
     16 O5        123.1290  116.7800  111.1670 O.2    301  PEE301      0.0000
     17 O2        118.9350  118.1580  109.8920 O.3    301  PEE301      0.0000
     18 O3        121.1240  117.0470  110.2190 O.3    301  PEE301      0.0000
     19 O1P       115.8040  114.9070  113.7050 O.co2  301  PEE301      0.0000
     20 O2P       117.9440  113.4900  112.9780 O.co2  301  PEE301      0.0000
     21 O3P       117.7740  116.0160  112.5650 O.3    301  PEE301      0.0000
     22 O4P       116.1770  114.3630  111.3030 O.3    301  PEE301      0.0000
     23 P         116.9750  114.6070  112.8630 P.3    301  PEE301      0.0000
     24 H         118.8362  118.2462  111.9820 H      301  PEE301      0.0000
     25 H         117.9265  115.7249  110.5186 H      301  PEE301      0.0000
     26 H         116.8239  117.0333  111.0656 H      301  PEE301      0.0000
     27 H         112.6883  113.2593  112.3993 H      301  PEE301      0.0000
     28 H         114.0496  112.5983  113.0696 H      301  PEE301      0.0000
     29 H         120.1464  115.7062  111.4506 H      301  PEE301      0.0000
     30 H         120.7568  117.1445  112.2910 H      301  PEE301      0.0000
     31 H         114.3585  114.9358  112.1882 H      301  PEE301      0.0000
     32 H         114.5263  115.1030  110.4583 H      301  PEE301      0.0000
     33 H         113.6099  113.0546  110.1309 H      301  PEE301      0.0000
     34 H         115.0836  112.3119  110.8386 H      301  PEE301      0.0000
     35 H         118.8383  120.0899  107.8596 H      301  PEE301      0.0000
     36 H         120.4824  119.7497  108.4106 H      301  PEE301      0.0000
     37 H         120.1477  121.8160  110.0630 H      301  PEE301      0.0000
     38 H         118.6914  122.1918  109.0816 H      301  PEE301      0.0000
     39 H         120.6976  123.4588  108.2633 H      301  PEE301      0.0000
     40 H         120.1760  122.2930  107.0080 H      301  PEE301      0.0000
     41 H         121.6079  121.9355  108.0290 H      301  PEE301      0.0000
     42 H         122.7940  119.5872  110.7639 H      301  PEE301      0.0000
     43 H         121.9769  119.1620  109.2325 H      301  PEE301      0.0000
     44 H         124.1382  117.7719  108.6604 H      301  PEE301      0.0000
     45 H         124.9169  118.7022  109.9777 H      301  PEE301      0.0000
     46 H         125.2768  119.8129  107.7588 H      301  PEE301      0.0000
     47 H         124.2539  120.8625  108.7881 H      301  PEE301      0.0000
     48 H         123.5119  119.8947  107.4712 H      301  PEE301      0.0000
     49 H         115.8751  114.3425  114.6828 H      301  PEE301      0.0000
     50 H         113.0841  111.6911  112.0937 H      301  PEE301      0.0000
@<TRIPOS>BOND
     1     1     2    1
     2     1     4    1
     3     1    17    1
     4     1    24    1
     5     2    21    1
     6     2    25    1
     7     2    26    1
     8     3     6    1
     9     3    27    1
    10     3    28    1
    11     4    18    1
    12     4    29    1
    13     4    30    1
    14     5     6    1
    15     5    22    1
    16     5    31    1
    17     5    32    1
    18     6    33    1
    19     6    34    1
    20     7     8    1
    21     7    15    2
    22     7    17    1
    23     8     9    1
    24     8    35    1
    25     8    36    1
    26     9    10    1
    27     9    37    1
    28     9    38    1
    29    10    39    1
    30    10    40    1
    31    10    41    1
    32    11    12    1
    33    11    16    2
    34    11    18    1
    35    12    13    1
    36    12    42    1
    37    12    43    1
    38    13    14    1
    39    13    44    1
    40    13    45    1
    41    14    46    1
    42    14    47    1
    43    14    48    1
    44    19    23    1
    45    20    23    2
    46    21    23    1
    47    22    23    1
    48    19    49    1
    49     3    50    1

