EKZ_1_A_201
  -ISIS-            3D

 26 26  0  0  0  0  0  0  0  0  1 V2000
  -39.4720   -6.8870    0.9860 C   0  0  0  0  0
  -38.9360   -6.2670    2.2680 C   0  0  0  0  0
  -38.7520   -4.7770    2.0210 C   0  0  0  0  0
  -37.5890   -6.8910    2.6080 C   0  0  0  0  0
  -39.8870   -6.4740    3.4530 C   0  0  0  0  0
  -39.8390   -5.6030    4.5100 C   0  0  0  0  0
  -40.6630   -5.7720    5.5940 C   0  0  0  0  0
  -40.5970   -4.8680    6.6410 O   0  0  0  0  0
  -41.5540   -6.8200    5.6520 C   0  0  0  0  0
  -42.4050   -6.9710    6.7670 O   0  0  0  0  0
  -41.6030   -7.6960    4.5880 C   0  0  0  0  0
  -40.7730   -7.5290    3.4970 C   0  0  0  0  0
  -39.5196   -7.9971    1.0311 H   0  0  0  0  0
  -38.8277   -6.6483    0.1103 H   0  0  0  0  0
  -40.4932   -6.5184    0.7392 H   0  0  0  0  0
  -38.1799   -4.2591    2.8205 H   0  0  0  0  0
  -39.7254   -4.2480    1.9089 H   0  0  0  0  0
  -38.1818   -4.5860    1.0843 H   0  0  0  0  0
  -37.1398   -6.4450    3.5235 H   0  0  0  0  0
  -36.8491   -6.7584    1.7872 H   0  0  0  0  0
  -37.6759   -7.9852    2.7932 H   0  0  0  0  0
  -39.1416   -4.7522    4.5326 H   0  0  0  0  0
  -41.4548   -4.7598    7.0301 H   0  0  0  0  0
  -41.9454   -6.7059    7.5529 H   0  0  0  0  0
  -42.3144   -8.5388    4.6129 H   0  0  0  0  0
  -40.8403   -8.2600    2.6763 H   0  0  0  0  0
  1  2  1  0  0  0
  1 13  1  0  0  0
  1 14  1  0  0  0
  1 15  1  0  0  0
  2  3  1  0  0  0
  2  4  1  0  0  0
  2  5  1  0  0  0
  3 16  1  0  0  0
  3 17  1  0  0  0
  3 18  1  0  0  0
  4 19  1  0  0  0
  4 20  1  0  0  0
  4 21  1  0  0  0
  5  6  2  0  0  0
  5 12  1  0  0  0
  6  7  1  0  0  0
  6 22  1  0  0  0
  7  8  1  0  0  0
  7  9  2  0  0  0
  8 23  1  0  0  0
  9 10  1  0  0  0
  9 11  1  0  0  0
 10 24  1  0  0  0
 11 12  2  0  0  0
 11 25  1  0  0  0
 12 26  1  0  0  0
M  END
$$$$
