DMS_1_A_402
  -ISIS-            3D

 10  9  0  0  0  0  0  0  0  0  1 V2000
    7.4560  -21.5230   29.4810 S   0  0  0  0  0
    8.6250  -20.8040   28.9070 O   0  0  0  0  0
    6.0200  -20.5200   29.1770 C   0  0  0  0  0
    7.0680  -22.8400   28.3660 C   0  0  0  0  0
    5.1049  -21.0731   29.4721 H   0  0  0  0  0
    5.9586  -20.2485   28.1032 H   0  0  0  0  0
    6.0874  -19.5918   29.7806 H   0  0  0  0  0
    6.1257  -23.3344   28.6793 H   0  0  0  0  0
    7.8865  -23.5884   28.3832 H   0  0  0  0  0
    6.9560  -22.4525   27.3327 H   0  0  0  0  0
  1  2  2  0  0  0
  1  3  1  0  0  0
  1  4  1  0  0  0
  3  5  1  0  0  0
  3  6  1  0  0  0
  3  7  1  0  0  0
  4  8  1  0  0  0
  4  9  1  0  0  0
  4 10  1  0  0  0
M  END
$$$$
