@<TRIPOS>MOLECULE
MRD_1_A_307
 22 21 0 0 0
SMALL
NO_CHARGES

@<TRIPOS>ATOM
      1 C1        -27.1780  -21.4050  -16.7580 C.3    307  MRD307      0.0000
      2 C2        -27.6890  -22.1810  -17.9650 C.3    307  MRD307      0.0000
      3 O2        -28.2990  -21.0600  -18.7020 O.3    307  MRD307      0.0000
      4 CM        -26.4950  -22.7530  -18.6400 C.3    307  MRD307      0.0000
      5 C3        -28.7080  -23.3300  -17.7930 C.3    307  MRD307      0.0000
      6 C4        -28.6940  -24.3110  -16.5990 C.3    307  MRD307      0.0000
      7 O4        -29.1480  -23.5880  -15.4250 O.3    307  MRD307      0.0000
      8 C5        -27.3900  -25.1620  -16.4780 C.3    307  MRD307      0.0000
      9 H         -26.6373  -22.0613  -16.0425 H      307  MRD307      0.0000
     10 H         -28.0128  -20.9394  -16.1892 H      307  MRD307      0.0000
     11 H         -26.4785  -20.5859  -17.0363 H      307  MRD307      0.0000
     12 H         -28.5435  -21.3723  -19.5629 H      307  MRD307      0.0000
     13 H         -26.7498  -23.2569  -19.5977 H      307  MRD307      0.0000
     14 H         -25.9523  -23.4950  -18.0198 H      307  MRD307      0.0000
     15 H         -25.7535  -21.9664  -18.9016 H      307  MRD307      0.0000
     16 H         -28.7153  -23.9342  -18.7279 H      307  MRD307      0.0000
     17 H         -29.7157  -22.8535  -17.7772 H      307  MRD307      0.0000
     18 H         -29.4946  -25.0582  -16.8271 H      307  MRD307      0.0000
     19 H         -29.2236  -24.2056  -14.7101 H      307  MRD307      0.0000
     20 H         -27.5150  -25.9769  -15.7318 H      307  MRD307      0.0000
     21 H         -26.5298  -24.5466  -16.1400 H      307  MRD307      0.0000
     22 H         -27.1176  -25.6398  -17.4441 H      307  MRD307      0.0000
@<TRIPOS>BOND
     1     1     2    1
     2     1     9    1
     3     1    10    1
     4     1    11    1
     5     2     3    1
     6     2     4    1
     7     2     5    1
     8     3    12    1
     9     4    13    1
    10     4    14    1
    11     4    15    1
    12     5     6    1
    13     5    16    1
    14     5    17    1
    15     6     7    1
    16     6     8    1
    17     6    18    1
    18     7    19    1
    19     8    20    1
    20     8    21    1
    21     8    22    1

