@<TRIPOS>MOLECULE
BDF_1_A_7105
 24 24 0 0 0
SMALL
NO_CHARGES

@<TRIPOS>ATOM
      1 C1         99.8350   38.6910   16.3780 C.3   7105  BDF7105      0.0000
      2 C2        100.2230   37.4630   17.1920 C.3   7105  BDF7105      0.0000
      3 C3        100.6800   36.2980   16.2990 C.3   7105  BDF7105      0.0000
      4 C4        100.4320   34.9670   16.9980 C.3   7105  BDF7105      0.0000
      5 C5         98.9410   34.7470   17.1890 C.3   7105  BDF7105      0.0000
      6 C6         98.2340   36.0850   17.3240 C.3   7105  BDF7105      0.0000
      7 O1         98.7240   38.4310   15.5310 O.3   7105  BDF7105      0.0000
      8 O2        101.2790   37.7940   18.0570 O.3   7105  BDF7105      0.0000
      9 O3        102.0630   36.4450   16.0000 O.3   7105  BDF7105      0.0000
     10 O4        101.0030   33.9060   16.2330 O.3   7105  BDF7105      0.0000
     11 O5         98.3960   34.0290   16.0760 O.3   7105  BDF7105      0.0000
     12 O6         99.0660   37.0820   17.9460 O.3   7105  BDF7105      0.0000
     13 H         100.6888   39.0109   15.7472 H     7105  BDF7105      0.0000
     14 H          99.6057   39.5456   17.0483 H     7105  BDF7105      0.0000
     15 H         100.1135   36.3067   15.3440 H     7105  BDF7105      0.0000
     16 H         100.9292   34.9853   17.9920 H     7105  BDF7105      0.0000
     17 H          98.7939   34.1503   18.1166 H     7105  BDF7105      0.0000
     18 H          97.3204   35.9602   17.9418 H     7105  BDF7105      0.0000
     19 H          97.8763   36.4385   16.3386 H     7105  BDF7105      0.0000
     20 H          97.9435   38.7313   15.9783 H     7105  BDF7105      0.0000
     21 H         101.9953   37.1856   17.9281 H     7105  BDF7105      0.0000
     22 H         102.3491   35.6149   15.6362 H     7105  BDF7105      0.0000
     23 H         100.3241   33.5631   15.6640 H     7105  BDF7105      0.0000
     24 H          97.5465   33.6889   16.3222 H     7105  BDF7105      0.0000
@<TRIPOS>BOND
     1     1     2    1
     2     1     7    1
     3     1    13    1
     4     1    14    1
     5     2     3    1
     6     2     8    1
     7     2    12    1
     8     3     4    1
     9     3     9    1
    10     3    15    1
    11     4     5    1
    12     4    10    1
    13     4    16    1
    14     5     6    1
    15     5    11    1
    16     5    17    1
    17     6    12    1
    18     6    18    1
    19     6    19    1
    20     7    20    1
    21     8    21    1
    22     9    22    1
    23    10    23    1
    24    11    24    1

