BDF_1_B_4403
  -ISIS-            3D

 24 24  0  0  0  0  0  0  0  0  1 V2000
   64.0710   20.3670   19.6930 C   0  0  0  0  0
   64.4200   21.3230   20.8250 C   0  0  0  0  0
   65.9310   21.5940   20.9120 C   0  0  0  0  0
   66.2440   22.4570   22.1290 C   0  0  0  0  0
   65.7000   21.8080   23.3910 C   0  0  0  0  0
   64.2290   21.4760   23.2150 C   0  0  0  0  0
   64.8540   19.1840   19.7630 O   0  0  0  0  0
   63.7520   22.5450   20.6350 O   0  0  0  0  0
   66.3660   22.2370   19.7210 O   0  0  0  0  0
   67.6550   22.6480   22.2370 O   0  0  0  0  0
   66.4180   20.6070   23.6830 O   0  0  0  0  0
   63.9930   20.6910   22.0320 O   0  0  0  0  0
   64.2184   20.8555   18.7073 H   0  0  0  0  0
   63.0002   20.0828   19.7423 H   0  0  0  0  0
   66.4747   20.6315   21.0094 H   0  0  0  0  0
   65.7684   23.4536   22.0033 H   0  0  0  0  0
   65.8201   22.5070   24.2467 H   0  0  0  0  0
   63.6239   22.4051   23.1707 H   0  0  0  0  0
   63.8542   20.9116   24.0940 H   0  0  0  0  0
   65.5796   19.2725   19.1583 H   0  0  0  0  0
   62.8192   22.3842   20.5809 H   0  0  0  0  0
   67.1984   22.6483   19.9233 H   0  0  0  0  0
   67.9865   21.9435   22.7827 H   0  0  0  0  0
   65.9863   19.8891   23.2345 H   0  0  0  0  0
  1  2  1  0  0  0
  1  7  1  0  0  0
  1 13  1  0  0  0
  1 14  1  0  0  0
  2  3  1  0  0  0
  2  8  1  0  0  0
  2 12  1  0  0  0
  3  4  1  0  0  0
  3  9  1  0  0  0
  3 15  1  0  0  0
  4  5  1  0  0  0
  4 10  1  0  0  0
  4 16  1  0  0  0
  5  6  1  0  0  0
  5 11  1  0  0  0
  5 17  1  0  0  0
  6 12  1  0  0  0
  6 18  1  0  0  0
  6 19  1  0  0  0
  7 20  1  0  0  0
  8 21  1  0  0  0
  9 22  1  0  0  0
 10 23  1  0  0  0
 11 24  1  0  0  0
M  END
$$$$
