BDF_1_A_7105
  -ISIS-            3D

 24 24  0  0  0  0  0  0  0  0  1 V2000
   99.8350   38.6910   16.3780 C   0  0  0  0  0
  100.2230   37.4630   17.1920 C   0  0  0  0  0
  100.6800   36.2980   16.2990 C   0  0  0  0  0
  100.4320   34.9670   16.9980 C   0  0  0  0  0
   98.9410   34.7470   17.1890 C   0  0  0  0  0
   98.2340   36.0850   17.3240 C   0  0  0  0  0
   98.7240   38.4310   15.5310 O   0  0  0  0  0
  101.2790   37.7940   18.0570 O   0  0  0  0  0
  102.0630   36.4450   16.0000 O   0  0  0  0  0
  101.0030   33.9060   16.2330 O   0  0  0  0  0
   98.3960   34.0290   16.0760 O   0  0  0  0  0
   99.0660   37.0820   17.9460 O   0  0  0  0  0
  100.6888   39.0109   15.7472 H   0  0  0  0  0
   99.6057   39.5456   17.0483 H   0  0  0  0  0
  100.1135   36.3067   15.3440 H   0  0  0  0  0
  100.9292   34.9853   17.9920 H   0  0  0  0  0
   98.7939   34.1503   18.1166 H   0  0  0  0  0
   97.3204   35.9602   17.9418 H   0  0  0  0  0
   97.8763   36.4385   16.3386 H   0  0  0  0  0
   97.9435   38.7313   15.9783 H   0  0  0  0  0
  101.9953   37.1856   17.9281 H   0  0  0  0  0
  102.3491   35.6149   15.6362 H   0  0  0  0  0
  100.3241   33.5631   15.6640 H   0  0  0  0  0
   97.5465   33.6889   16.3222 H   0  0  0  0  0
  1  2  1  0  0  0
  1  7  1  0  0  0
  1 13  1  0  0  0
  1 14  1  0  0  0
  2  3  1  0  0  0
  2  8  1  0  0  0
  2 12  1  0  0  0
  3  4  1  0  0  0
  3  9  1  0  0  0
  3 15  1  0  0  0
  4  5  1  0  0  0
  4 10  1  0  0  0
  4 16  1  0  0  0
  5  6  1  0  0  0
  5 11  1  0  0  0
  5 17  1  0  0  0
  6 12  1  0  0  0
  6 18  1  0  0  0
  6 19  1  0  0  0
  7 20  1  0  0  0
  8 21  1  0  0  0
  9 22  1  0  0  0
 10 23  1  0  0  0
 11 24  1  0  0  0
M  END
$$$$
