@<TRIPOS>MOLECULE
SAM_1_A_7102
 50 52 0 0 0
SMALL
NO_CHARGES

@<TRIPOS>ATOM
      1 N          81.9760   19.2480   24.2410 N.3   7102  SAM7102      1.0000
      2 CA         80.6450   18.7210   24.6380 C.3   7102  SAM7102      0.0000
      3 C          79.5490   19.5450   23.9440 C.2   7102  SAM7102      0.0000
      4 O          79.8160   19.9730   22.8010 O.co2 7102  SAM7102     -0.5000
      5 OXT        78.4640   19.6990   24.5380 O.co2 7102  SAM7102     -0.5000
      6 CB         80.5040   18.7460   26.1660 C.3   7102  SAM7102      0.0000
      7 CG         81.5900   17.9120   26.8480 C.3   7102  SAM7102      0.0000
      8 SD         81.3190   17.6670   28.6190 S.3   7102  SAM7102      0.0000
      9 CE         81.6170   19.3120   29.2440 C.3   7102  SAM7102      0.0000
     10 C5'        82.8780   16.8310   29.0240 C.3   7102  SAM7102      0.0000
     11 C4'        83.0140   15.4580   28.3890 C.3   7102  SAM7102      0.0000
     12 O4'        84.3220   14.9150   28.6840 O.3   7102  SAM7102      0.0000
     13 C3'        82.0070   14.4070   28.8740 C.3   7102  SAM7102      0.0000
     14 O3'        81.1630   13.9960   27.8020 O.3   7102  SAM7102      0.0000
     15 C2'        82.8840   13.2610   29.4040 C.3   7102  SAM7102      0.0000
     16 O2'        82.3610   11.9820   29.1170 O.3   7102  SAM7102      0.0000
     17 C1'        84.2000   13.5140   28.6780 C.3   7102  SAM7102      0.0000
     18 N9         85.3640   12.9020   29.3150 N.ar  7102  SAM7102      0.0000
     19 C8         85.7900   13.0790   30.6100 C.ar  7102  SAM7102      0.0000
     20 N7         86.8530   12.3730   30.9120 N.ar  7102  SAM7102      0.0000
     21 C5         87.1470   11.6740   29.7490 C.ar  7102  SAM7102      0.0000
     22 C6         88.1610   10.7470   29.4290 C.ar  7102  SAM7102      0.0000
     23 N6         89.0940   10.3410   30.2880 N.pl3 7102  SAM7102      0.0000
     24 N1         88.1650   10.2300   28.1770 N.ar  7102  SAM7102      0.0000
     25 C2         87.2210   10.6370   27.3180 C.ar  7102  SAM7102      0.0000
     26 N3         86.2220   11.4970   27.5070 N.ar  7102  SAM7102      0.0000
     27 C4         86.2360   11.9900   28.7580 C.ar  7102  SAM7102      0.0000
     28 H          82.7257   18.6664   24.6004 H     7102  SAM7102      0.0000
     29 H          82.1097   20.1950   24.5848 H     7102  SAM7102      0.0000
     30 H          80.5505   17.6684   24.2778 H     7102  SAM7102      0.0000
     31 H          79.5060   18.3369   26.4472 H     7102  SAM7102      0.0000
     32 H          80.5392   19.7963   26.5346 H     7102  SAM7102      0.0000
     33 H          82.5915   18.3762   26.7132 H     7102  SAM7102      0.0000
     34 H          81.6189   16.9081   26.3701 H     7102  SAM7102      0.0000
     35 H          81.6856   19.2918   30.3532 H     7102  SAM7102      0.0000
     36 H          80.7816   19.9931   28.9744 H     7102  SAM7102      0.0000
     37 H          82.5588   19.7534   28.8533 H     7102  SAM7102      0.0000
     38 H          82.9455   16.7472   30.1310 H     7102  SAM7102      0.0000
     39 H          83.7260   17.4762   28.7046 H     7102  SAM7102      0.0000
     40 H          82.9399   15.5493   27.2845 H     7102  SAM7102      0.0000
     41 H          81.3788   14.8026   29.6993 H     7102  SAM7102      0.0000
     42 H          80.9595   13.0795   27.9501 H     7102  SAM7102      0.0000
     43 H          83.0165   13.3841   30.5002 H     7102  SAM7102      0.0000
     44 H          83.0108   11.3402   29.3736 H     7102  SAM7102      0.0000
     45 H          84.1424   13.1473   27.6308 H     7102  SAM7102      0.0000
     46 H          85.3563   13.7251   31.3845 H     7102  SAM7102      0.0000
     47 H          87.2749   10.1887   26.3108 H     7102  SAM7102      0.0000
     48 H          89.7618    9.6521   29.9203 H     7102  SAM7102      0.0000
     49 H          89.0731   10.7427   31.2340 H     7102  SAM7102      0.0000
     50 H          82.0781   19.2583   23.2304 H     7102  SAM7102      0.0000
@<TRIPOS>BOND
     1     1     2    1
     2     1    28    1
     3     1    29    1
     4     2     3    1
     5     2     6    1
     6     2    30    1
     7     3     4   ar
     8     3     5   ar
     9     6     7    1
    10     6    31    1
    11     6    32    1
    12     7     8    1
    13     7    33    1
    14     7    34    1
    15     8     9    1
    16     8    10    1
    17     9    35    1
    18     9    36    1
    19     9    37    1
    20    10    11    1
    21    10    38    1
    22    10    39    1
    23    11    12    1
    24    11    13    1
    25    11    40    1
    26    12    17    1
    27    13    14    1
    28    13    15    1
    29    13    41    1
    30    14    42    1
    31    15    16    1
    32    15    17    1
    33    15    43    1
    34    16    44    1
    35    17    18    1
    36    17    45    1
    37    18    19   ar
    38    18    27   ar
    39    19    20   ar
    40    19    46    1
    41    20    21   ar
    42    21    22   ar
    43    21    27   ar
    44    22    23    1
    45    22    24   ar
    46    23    48    1
    47    23    49    1
    48    24    25   ar
    49    25    26   ar
    50    25    47    1
    51    26    27   ar
    52     1    50    1

