@<TRIPOS>MOLECULE
EDO_1_E_902
 10 9 0 0 0
SMALL
NO_CHARGES

@<TRIPOS>ATOM
      1 C1          4.4060   62.3420   24.4170 C.3    902  EDO902      0.0000
      2 O1          4.7980   63.4780   25.1960 O.3    902  EDO902      0.0000
      3 C2          4.6180   62.6300   22.9360 C.3    902  EDO902      0.0000
      4 O2          6.0190   62.6180   22.6430 O.3    902  EDO902      0.0000
      5 H           3.3328   62.1265   24.6069 H      902  EDO902      0.0000
      6 H           4.9835   61.4471   24.7311 H      902  EDO902      0.0000
      7 H           4.6484   63.2763   26.1100 H      902  EDO902      0.0000
      8 H           4.1753   63.6059   22.6465 H      902  EDO902      0.0000
      9 H           4.1239   61.8500   22.3202 H      902  EDO902      0.0000
     10 H           6.4205   63.2598   23.2164 H      902  EDO902      0.0000
@<TRIPOS>BOND
     1     1     2    1
     2     1     3    1
     3     1     5    1
     4     1     6    1
     5     2     7    1
     6     3     4    1
     7     3     8    1
     8     3     9    1
     9     4    10    1

