EDO_1_H_403
  -ISIS-            3D

 10  9  0  0  0  0  0  0  0  0  1 V2000
    2.5770   40.5070    2.0270 C   0  0  0  0  0
    3.1970   41.5450    2.7940 O   0  0  0  0  0
    3.4050   40.2110    0.7870 C   0  0  0  0  0
    4.6600   39.6330    1.1690 O   0  0  0  0  0
    1.5592   40.8417    1.7378 H   0  0  0  0  0
    2.4558   39.5990    2.6539 H   0  0  0  0  0
    4.1150   41.3131    2.8725 H   0  0  0  0  0
    3.5939   41.1415    0.2127 H   0  0  0  0  0
    2.8618   39.5178    0.1101 H   0  0  0  0  0
    4.5540   38.6927    1.2288 H   0  0  0  0  0
  1  2  1  0  0  0
  1  3  1  0  0  0
  1  5  1  0  0  0
  1  6  1  0  0  0
  2  7  1  0  0  0
  3  4  1  0  0  0
  3  8  1  0  0  0
  3  9  1  0  0  0
  4 10  1  0  0  0
M  END
$$$$
