EDO_1_E_906
  -ISIS-            3D

 10  9  0  0  0  0  0  0  0  0  1 V2000
   -0.2210   49.0120    3.7740 C   0  0  0  0  0
   -0.6390   50.0760    2.9070 O   0  0  0  0  0
    0.6950   49.5610    4.8520 C   0  0  0  0  0
    0.9630   48.5700    5.8480 O   0  0  0  0  0
    0.3062   48.2423    3.1734 H   0  0  0  0  0
   -1.1117   48.5237    4.2234 H   0  0  0  0  0
   -1.4106   50.4813    3.2803 H   0  0  0  0  0
    0.2235   50.4399    5.3412 H   0  0  0  0  0
    1.6502   49.9065    4.4026 H   0  0  0  0  0
    1.5831   48.9308    6.4680 H   0  0  0  0  0
  1  2  1  0  0  0
  1  3  1  0  0  0
  1  5  1  0  0  0
  1  6  1  0  0  0
  2  7  1  0  0  0
  3  4  1  0  0  0
  3  8  1  0  0  0
  3  9  1  0  0  0
  4 10  1  0  0  0
M  END
$$$$
