@<TRIPOS>MOLECULE
EDO_1_E_907
 10 9 0 0 0
SMALL
NO_CHARGES

@<TRIPOS>ATOM
      1 C1          8.9350   65.8540   14.5730 C.3    907  EDO907      0.0000
      2 O1          8.8740   66.8110   13.5070 O.3    907  EDO907      0.0000
      3 C2         10.3890   65.5290   14.8950 C.3    907  EDO907      0.0000
      4 O2         11.2570   66.6000   14.5060 O.3    907  EDO907      0.0000
      5 H           8.3688   64.9429   14.2916 H      907  EDO907      0.0000
      6 H           8.4348   66.2888   15.4640 H      907  EDO907      0.0000
      7 H           9.6114   67.4004   13.6117 H      907  EDO907      0.0000
      8 H          10.6917   64.6111   14.3466 H      907  EDO907      0.0000
      9 H          10.5102   65.3158   15.9779 H      907  EDO907      0.0000
     10 H          12.1499   66.3382   14.6867 H      907  EDO907      0.0000
@<TRIPOS>BOND
     1     1     2    1
     2     1     3    1
     3     1     5    1
     4     1     6    1
     5     2     7    1
     6     3     4    1
     7     3     8    1
     8     3     9    1
     9     4    10    1

