@<TRIPOS>MOLECULE
EDO_1_E_904
 10 9 0 0 0
SMALL
NO_CHARGES

@<TRIPOS>ATOM
      1 C1        -10.2730   69.5740    9.2610 C.3    904  EDO904      0.0000
      2 O1        -10.0450   70.9130    8.8050 O.3    904  EDO904      0.0000
      3 C2        -11.1770   68.8530    8.2700 C.3    904  EDO904      0.0000
      4 O2        -11.0430   69.4610    6.9790 O.3    904  EDO904      0.0000
      5 H         -10.7227   69.5845   10.2757 H      904  EDO904      0.0000
      6 H          -9.2972   69.0478    9.3325 H      904  EDO904      0.0000
      7 H          -9.4277   71.3296    9.3929 H      904  EDO904      0.0000
      8 H         -12.2352   68.9348    8.5985 H      904  EDO904      0.0000
      9 H         -10.9268   67.7732    8.2136 H      904  EDO904      0.0000
     10 H         -11.6988   69.0899    6.4024 H      904  EDO904      0.0000
@<TRIPOS>BOND
     1     1     2    1
     2     1     3    1
     3     1     5    1
     4     1     6    1
     5     2     7    1
     6     3     4    1
     7     3     8    1
     8     3     9    1
     9     4    10    1

