EDO_1_E_904
  -ISIS-            3D

 10  9  0  0  0  0  0  0  0  0  1 V2000
  -10.2730   69.5740    9.2610 C   0  0  0  0  0
  -10.0450   70.9130    8.8050 O   0  0  0  0  0
  -11.1770   68.8530    8.2700 C   0  0  0  0  0
  -11.0430   69.4610    6.9790 O   0  0  0  0  0
  -10.7227   69.5845   10.2757 H   0  0  0  0  0
   -9.2972   69.0478    9.3325 H   0  0  0  0  0
   -9.4277   71.3296    9.3929 H   0  0  0  0  0
  -12.2352   68.9348    8.5985 H   0  0  0  0  0
  -10.9268   67.7732    8.2136 H   0  0  0  0  0
  -11.6988   69.0899    6.4024 H   0  0  0  0  0
  1  2  1  0  0  0
  1  3  1  0  0  0
  1  5  1  0  0  0
  1  6  1  0  0  0
  2  7  1  0  0  0
  3  4  1  0  0  0
  3  8  1  0  0  0
  3  9  1  0  0  0
  4 10  1  0  0  0
M  END
$$$$
