@<TRIPOS>MOLECULE
EDO_1_L_306
 10 9 0 0 0
SMALL
NO_CHARGES

@<TRIPOS>ATOM
      1 C1        -12.9110   21.1000  -21.5670 C.3    306  EDO306      0.0000
      2 O1        -13.7520   20.1440  -20.9110 O.3    306  EDO306      0.0000
      3 C2        -11.4930   20.9540  -21.0570 C.3    306  EDO306      0.0000
      4 O2        -10.5970   21.0550  -22.1670 O.3    306  EDO306      0.0000
      5 H         -13.2894   22.1280  -21.3854 H      306  EDO306      0.0000
      6 H         -12.9602   20.9205  -22.6620 H      306  EDO306      0.0000
      7 H         -14.6412   20.2740  -21.2132 H      306  EDO306      0.0000
      8 H         -11.3416   19.9782  -20.5485 H      306  EDO306      0.0000
      9 H         -11.2546   21.7463  -20.3180 H      306  EDO306      0.0000
     10 H         -10.5107   20.1960  -22.5590 H      306  EDO306      0.0000
@<TRIPOS>BOND
     1     1     2    1
     2     1     3    1
     3     1     5    1
     4     1     6    1
     5     2     7    1
     6     3     4    1
     7     3     8    1
     8     3     9    1
     9     4    10    1

