EDO_1_H_406
  -ISIS-            3D

 10  9  0  0  0  0  0  0  0  0  1 V2000
   24.1000   32.4400    3.1490 C   0  0  0  0  0
   23.6270   31.8670    4.3760 O   0  0  0  0  0
   23.5370   33.8410    2.9940 C   0  0  0  0  0
   24.4070   34.6270    2.1670 O   0  0  0  0  0
   23.8074   31.8019    2.2889 H   0  0  0  0  0
   25.2100   32.4698    3.1792 H   0  0  0  0  0
   23.9449   30.9754    4.4288 H   0  0  0  0  0
   23.4296   34.3353    3.9831 H   0  0  0  0  0
   22.5266   33.8080    2.5373 H   0  0  0  0  0
   25.0769   35.0106    2.7177 H   0  0  0  0  0
  1  2  1  0  0  0
  1  3  1  0  0  0
  1  5  1  0  0  0
  1  6  1  0  0  0
  2  7  1  0  0  0
  3  4  1  0  0  0
  3  8  1  0  0  0
  3  9  1  0  0  0
  4 10  1  0  0  0
M  END
$$$$
