@<TRIPOS>MOLECULE
EDO_1_H_401
 10 9 0 0 0
SMALL
NO_CHARGES

@<TRIPOS>ATOM
      1 C1         15.7580   40.3320   15.0880 C.3    401  EDO401      0.0000
      2 O1         16.0260   40.6270   13.7120 O.3    401  EDO401      0.0000
      3 C2         14.7680   39.1780   15.1700 C.3    401  EDO401      0.0000
      4 O2         15.3250   38.0320   14.5160 O.3    401  EDO401      0.0000
      5 H          15.3410   41.2317   15.5879 H      401  EDO401      0.0000
      6 H          16.7046   40.0691   15.6059 H      401  EDO401      0.0000
      7 H          16.6418   41.3468   13.6785 H      401  EDO401      0.0000
      8 H          13.8038   39.4483   14.6905 H      401  EDO401      0.0000
      9 H          14.5513   38.9219   16.2275 H      401  EDO401      0.0000
     10 H          15.6343   38.3347   13.6697 H      401  EDO401      0.0000
@<TRIPOS>BOND
     1     1     2    1
     2     1     3    1
     3     1     5    1
     4     1     6    1
     5     2     7    1
     6     3     4    1
     7     3     8    1
     8     3     9    1
     9     4    10    1

