EDO_1_L_307
  -ISIS-            3D

 10  9  0  0  0  0  0  0  0  0  1 V2000
    2.0340   24.4370  -11.5740 C   0  0  0  0  0
    2.1590   23.1820  -12.2540 O   0  0  0  0  0
    3.4060   24.9040  -11.1240 C   0  0  0  0  0
    3.9870   23.9160  -10.2640 O   0  0  0  0  0
    1.3573   24.3227  -10.7008 H   0  0  0  0  0
    1.5775   25.1861  -12.2550 H   0  0  0  0  0
    1.2949   22.9087  -12.5315 H   0  0  0  0  0
    3.3328   25.8647  -10.5740 H   0  0  0  0  0
    4.0716   25.0732  -11.9964 H   0  0  0  0  0
    3.8855   23.0835  -10.7115 H   0  0  0  0  0
  1  2  1  0  0  0
  1  3  1  0  0  0
  1  5  1  0  0  0
  1  6  1  0  0  0
  2  7  1  0  0  0
  3  4  1  0  0  0
  3  8  1  0  0  0
  3  9  1  0  0  0
  4 10  1  0  0  0
M  END
$$$$
