EDO_1_L_303
  -ISIS-            3D

 10  9  0  0  0  0  0  0  0  0  1 V2000
  -23.9900   -5.8940  -16.9110 C   0  0  0  0  0
  -23.5520   -6.0020  -18.2700 O   0  0  0  0  0
  -25.5020   -6.0480  -16.8530 C   0  0  0  0  0
  -25.8990   -7.1760  -17.6400 O   0  0  0  0  0
  -23.6782   -4.9155  -16.4896 H   0  0  0  0  0
  -23.5061   -6.6897  -16.3052 H   0  0  0  0  0
  -22.6047   -6.0487  -18.2762 H   0  0  0  0  0
  -25.9894   -5.1326  -17.2515 H   0  0  0  0  0
  -25.8434   -6.1796  -15.8049 H   0  0  0  0  0
  -26.8436   -7.1642  -17.7249 H   0  0  0  0  0
  1  2  1  0  0  0
  1  3  1  0  0  0
  1  5  1  0  0  0
  1  6  1  0  0  0
  2  7  1  0  0  0
  3  4  1  0  0  0
  3  8  1  0  0  0
  3  9  1  0  0  0
  4 10  1  0  0  0
M  END
$$$$
