@<TRIPOS>MOLECULE
EDO_1_L_307
 10 9 0 0 0
SMALL
NO_CHARGES

@<TRIPOS>ATOM
      1 C1          2.0340   24.4370  -11.5740 C.3    307  EDO307      0.0000
      2 O1          2.1590   23.1820  -12.2540 O.3    307  EDO307      0.0000
      3 C2          3.4060   24.9040  -11.1240 C.3    307  EDO307      0.0000
      4 O2          3.9870   23.9160  -10.2640 O.3    307  EDO307      0.0000
      5 H           1.3573   24.3227  -10.7008 H      307  EDO307      0.0000
      6 H           1.5775   25.1861  -12.2550 H      307  EDO307      0.0000
      7 H           1.2949   22.9087  -12.5315 H      307  EDO307      0.0000
      8 H           3.3328   25.8647  -10.5740 H      307  EDO307      0.0000
      9 H           4.0716   25.0732  -11.9964 H      307  EDO307      0.0000
     10 H           3.8855   23.0835  -10.7115 H      307  EDO307      0.0000
@<TRIPOS>BOND
     1     1     2    1
     2     1     3    1
     3     1     5    1
     4     1     6    1
     5     2     7    1
     6     3     4    1
     7     3     8    1
     8     3     9    1
     9     4    10    1

