@<TRIPOS>MOLECULE
EDO_1_L_301
 10 9 0 0 0
SMALL
NO_CHARGES

@<TRIPOS>ATOM
      1 C1        -10.8520    8.9560  -13.8590 C.3    301  EDO301      0.0000
      2 O1        -10.2930   10.1570  -14.3980 O.3    301  EDO301      0.0000
      3 C2        -10.2180    7.7630  -14.5510 C.3    301  EDO301      0.0000
      4 O2        -10.4020    7.8780  -15.9650 O.3    301  EDO301      0.0000
      5 H         -11.9487    8.9637  -14.0293 H      301  EDO301      0.0000
      6 H         -10.6915    8.9115  -12.7610 H      301  EDO301      0.0000
      7 H          -9.5854   10.4409  -13.8345 H      301  EDO301      0.0000
      8 H         -10.6782    6.8161  -14.2011 H      301  EDO301      0.0000
      9 H          -9.1327    7.7057  -14.3244 H      301  EDO301      0.0000
     10 H         -10.2414    8.7890  -16.1844 H      301  EDO301      0.0000
@<TRIPOS>BOND
     1     1     2    1
     2     1     3    1
     3     1     5    1
     4     1     6    1
     5     2     7    1
     6     3     4    1
     7     3     8    1
     8     3     9    1
     9     4    10    1

