@<TRIPOS>MOLECULE
EDO_1_H_407
 10 9 0 0 0
SMALL
NO_CHARGES

@<TRIPOS>ATOM
      1 C1         -7.7350   -5.2590  -11.1710 C.3    407  EDO407      0.0000
      2 O1         -7.7920   -6.3180  -12.1330 O.3    407  EDO407      0.0000
      3 C2         -6.5520   -5.4760  -10.2430 C.3    407  EDO407      0.0000
      4 O2         -5.3280   -5.0740  -10.8720 O.3    407  EDO407      0.0000
      5 H          -8.6808   -5.2676  -10.5900 H      407  EDO407      0.0000
      6 H          -7.6757   -4.2761  -11.6832 H      407  EDO407      0.0000
      7 H          -6.9796   -6.2873  -12.6231 H      407  EDO407      0.0000
      8 H          -6.4868   -6.5389   -9.9283 H      407  EDO407      0.0000
      9 H          -6.6910   -4.8720   -9.3208 H      407  EDO407      0.0000
     10 H          -4.6188   -5.2192  -10.2600 H      407  EDO407      0.0000
@<TRIPOS>BOND
     1     1     2    1
     2     1     3    1
     3     1     5    1
     4     1     6    1
     5     2     7    1
     6     3     4    1
     7     3     8    1
     8     3     9    1
     9     4    10    1

