@<TRIPOS>MOLECULE
EDO_1_E_901
 10 9 0 0 0
SMALL
NO_CHARGES

@<TRIPOS>ATOM
      1 C1          1.8100   60.6250   26.3980 C.3    901  EDO901      0.0000
      2 O1          1.5640   62.0280   26.5330 O.3    901  EDO901      0.0000
      3 C2          1.1020   60.1020   25.1530 C.3    901  EDO901      0.0000
      4 O2          0.4300   58.8830   25.4780 O.3    901  EDO901      0.0000
      5 H           1.4351   60.1071   27.3063 H      901  EDO901      0.0000
      6 H           2.9022   60.4356   26.3374 H      901  EDO901      0.0000
      7 H           1.9576   62.3205   27.3444 H      901  EDO901      0.0000
      8 H           1.8265   59.9298   24.3297 H      901  EDO901      0.0000
      9 H           0.3546   60.8389   24.7898 H      901  EDO901      0.0000
     10 H          -0.0580   58.6018   24.7154 H      901  EDO901      0.0000
@<TRIPOS>BOND
     1     1     2    1
     2     1     3    1
     3     1     5    1
     4     1     6    1
     5     2     7    1
     6     3     4    1
     7     3     8    1
     8     3     9    1
     9     4    10    1

