@<TRIPOS>MOLECULE
EDO_1_H_402
 10 9 0 0 0
SMALL
NO_CHARGES

@<TRIPOS>ATOM
      1 C1          5.0170   45.2760    3.1690 C.3    402  EDO402      0.0000
      2 O1          3.9990   46.1000    2.5980 O.3    402  EDO402      0.0000
      3 C2          5.0940   43.9900    2.3650 C.3    402  EDO402      0.0000
      4 O2          5.0440   44.3060    0.9690 O.3    402  EDO402      0.0000
      5 H           4.7879   45.0631    4.2341 H      402  EDO402      0.0000
      6 H           5.9890   45.8123    3.1311 H      402  EDO402      0.0000
      7 H           3.9594   46.9072    3.0932 H      402  EDO402      0.0000
      8 H           4.2425   43.3226    2.6151 H      402  EDO402      0.0000
      9 H           6.0273   43.4336    2.5874 H      402  EDO402      0.0000
     10 H           4.3628   44.9604    0.8628 H      402  EDO402      0.0000
@<TRIPOS>BOND
     1     1     2    1
     2     1     3    1
     3     1     5    1
     4     1     6    1
     5     2     7    1
     6     3     4    1
     7     3     8    1
     8     3     9    1
     9     4    10    1

