@<TRIPOS>MOLECULE
EDO_1_L_303
 10 9 0 0 0
SMALL
NO_CHARGES

@<TRIPOS>ATOM
      1 C1        -23.9900   -5.8940  -16.9110 C.3    303  EDO303      0.0000
      2 O1        -23.5520   -6.0020  -18.2700 O.3    303  EDO303      0.0000
      3 C2        -25.5020   -6.0480  -16.8530 C.3    303  EDO303      0.0000
      4 O2        -25.8990   -7.1760  -17.6400 O.3    303  EDO303      0.0000
      5 H         -23.6782   -4.9155  -16.4896 H      303  EDO303      0.0000
      6 H         -23.5061   -6.6897  -16.3052 H      303  EDO303      0.0000
      7 H         -22.6047   -6.0487  -18.2762 H      303  EDO303      0.0000
      8 H         -25.9894   -5.1326  -17.2515 H      303  EDO303      0.0000
      9 H         -25.8434   -6.1796  -15.8049 H      303  EDO303      0.0000
     10 H         -26.8436   -7.1642  -17.7249 H      303  EDO303      0.0000
@<TRIPOS>BOND
     1     1     2    1
     2     1     3    1
     3     1     5    1
     4     1     6    1
     5     2     7    1
     6     3     4    1
     7     3     8    1
     8     3     9    1
     9     4    10    1

