@<TRIPOS>MOLECULE
DMS_2_A_404
 10 9 0 0 0
SMALL
NO_CHARGES

@<TRIPOS>ATOM
      1 S         -20.5220  -16.7950   -5.4520 S.o    404  DMS404      0.0000
      2 O         -20.3620  -17.6810   -6.6590 O.2    404  DMS404      0.0000
      3 C1        -21.1230  -17.8410   -4.1450 C.3    404  DMS404      0.0000
      4 C2        -22.0050  -15.8470   -5.7240 C.3    404  DMS404      0.0000
      5 H         -21.3967  -17.2233   -3.2653 H      404  DMS404      0.0000
      6 H         -20.3253  -18.5527   -3.8492 H      404  DMS404      0.0000
      7 H         -22.0102  -18.4131   -4.4858 H      404  DMS404      0.0000
      8 H         -22.2583  -15.2750   -4.8080 H      404  DMS404      0.0000
      9 H         -22.8485  -16.5176   -5.9866 H      404  DMS404      0.0000
     10 H         -21.8363  -15.1342   -6.5570 H      404  DMS404      0.0000
@<TRIPOS>BOND
     1     1     2    2
     2     1     3    1
     3     1     4    1
     4     3     5    1
     5     3     6    1
     6     3     7    1
     7     4     8    1
     8     4     9    1
     9     4    10    1

