DMS_1_A_404
  -ISIS-            3D

 10  9  0  0  0  0  0  0  0  0  1 V2000
   20.5220  -16.7950    5.4520 S   0  0  0  0  0
   20.3620  -17.6810    6.6590 O   0  0  0  0  0
   21.1230  -17.8410    4.1450 C   0  0  0  0  0
   22.0050  -15.8470    5.7240 C   0  0  0  0  0
   21.3967  -17.2233    3.2653 H   0  0  0  0  0
   20.3253  -18.5527    3.8492 H   0  0  0  0  0
   22.0102  -18.4131    4.4858 H   0  0  0  0  0
   22.2583  -15.2750    4.8080 H   0  0  0  0  0
   22.8485  -16.5176    5.9866 H   0  0  0  0  0
   21.8363  -15.1342    6.5570 H   0  0  0  0  0
  1  2  2  0  0  0
  1  3  1  0  0  0
  1  4  1  0  0  0
  3  5  1  0  0  0
  3  6  1  0  0  0
  3  7  1  0  0  0
  4  8  1  0  0  0
  4  9  1  0  0  0
  4 10  1  0  0  0
M  END
$$$$
