DMS_1_A_402
  -ISIS-            3D

 10  9  0  0  0  0  0  0  0  0  1 V2000
    7.4220  -21.0340   29.7750 S   0  0  0  0  0
    8.7180  -20.9050   30.5240 O   0  0  0  0  0
    6.1280  -20.8180   30.9700 C   0  0  0  0  0
    7.1740  -22.7640   29.4460 C   0  0  0  0  0
    5.1443  -21.0270   30.5016 H   0  0  0  0  0
    6.1358  -19.7701   31.3336 H   0  0  0  0  0
    6.2798  -21.5002   31.8311 H   0  0  0  0  0
    6.1657  -22.9236   29.0118 H   0  0  0  0  0
    7.2718  -23.3522   30.3811 H   0  0  0  0  0
    7.9365  -23.1115   28.7191 H   0  0  0  0  0
  1  2  2  0  0  0
  1  3  1  0  0  0
  1  4  1  0  0  0
  3  5  1  0  0  0
  3  6  1  0  0  0
  3  7  1  0  0  0
  4  8  1  0  0  0
  4  9  1  0  0  0
  4 10  1  0  0  0
M  END
$$$$
