DMS_2_A_403
  -ISIS-            3D

 10  9  0  0  0  0  0  0  0  0  1 V2000
   -1.5270  -18.6230   -9.0780 S   0  0  0  0  0
   -0.1140  -19.1230   -9.1450 O   0  0  0  0  0
   -2.4310  -19.7720   -8.0890 C   0  0  0  0  0
   -2.2560  -19.0700  -10.6280 C   0  0  0  0  0
   -3.5148  -19.5390   -8.1329 H   0  0  0  0  0
   -2.0928  -19.6929   -7.0350 H   0  0  0  0  0
   -2.2612  -20.8091   -8.4427 H   0  0  0  0  0
   -3.3455  -18.8619  -10.6077 H   0  0  0  0  0
   -2.0890  -20.1450  -10.8417 H   0  0  0  0  0
   -1.7941  -18.4673  -11.4370 H   0  0  0  0  0
  1  2  2  0  0  0
  1  3  1  0  0  0
  1  4  1  0  0  0
  3  5  1  0  0  0
  3  6  1  0  0  0
  3  7  1  0  0  0
  4  8  1  0  0  0
  4  9  1  0  0  0
  4 10  1  0  0  0
M  END
$$$$
