@<TRIPOS>MOLECULE
DMS_2_A_403
 10 9 0 0 0
SMALL
NO_CHARGES

@<TRIPOS>ATOM
      1 S          -1.5270  -18.6230   -9.0780 S.o    403  DMS403      0.0000
      2 O          -0.1140  -19.1230   -9.1450 O.2    403  DMS403      0.0000
      3 C1         -2.4310  -19.7720   -8.0890 C.3    403  DMS403      0.0000
      4 C2         -2.2560  -19.0700  -10.6280 C.3    403  DMS403      0.0000
      5 H          -3.5148  -19.5390   -8.1329 H      403  DMS403      0.0000
      6 H          -2.0928  -19.6929   -7.0350 H      403  DMS403      0.0000
      7 H          -2.2612  -20.8091   -8.4427 H      403  DMS403      0.0000
      8 H          -3.3455  -18.8619  -10.6077 H      403  DMS403      0.0000
      9 H          -2.0890  -20.1450  -10.8417 H      403  DMS403      0.0000
     10 H          -1.7941  -18.4673  -11.4370 H      403  DMS403      0.0000
@<TRIPOS>BOND
     1     1     2    2
     2     1     3    1
     3     1     4    1
     4     3     5    1
     5     3     6    1
     6     3     7    1
     7     4     8    1
     8     4     9    1
     9     4    10    1

