@<TRIPOS>MOLECULE
EDO_1_A_504
 10 9 0 0 0
SMALL
NO_CHARGES

@<TRIPOS>ATOM
      1 C1          3.8760    9.6140   37.5080 C.3    504  EDO504      0.0000
      2 O1          3.4190   10.6420   38.4090 O.3    504  EDO504      0.0000
      3 C2          5.2890    9.8010   37.0660 C.3    504  EDO504      0.0000
      4 O2          5.4170   10.9560   36.2550 O.3    504  EDO504      0.0000
      5 H           3.1955    9.5741   36.6313 H      504  EDO504      0.0000
      6 H           3.7717    8.6372   38.0255 H      504  EDO504      0.0000
      7 H           3.6918   11.4707   38.0340 H      504  EDO504      0.0000
      8 H           5.6444    8.9109   36.5040 H      504  EDO504      0.0000
      9 H           5.9567    9.9064   37.9462 H      504  EDO504      0.0000
     10 H           5.1911   10.7295   35.3622 H      504  EDO504      0.0000
@<TRIPOS>BOND
     1     1     2    1
     2     1     3    1
     3     1     5    1
     4     1     6    1
     5     2     7    1
     6     3     4    1
     7     3     8    1
     8     3     9    1
     9     4    10    1

