@<TRIPOS>MOLECULE
EDO_1_B_201
 10 9 0 0 0
SMALL
NO_CHARGES

@<TRIPOS>ATOM
      1 C1         -7.6060   -9.8360   50.3780 C.3    201  EDO201      0.0000
      2 O1         -6.9640   -9.3550   51.5440 O.3    201  EDO201      0.0000
      3 C2         -6.6330  -10.0530   49.2650 C.3    201  EDO201      0.0000
      4 O2         -5.6330  -11.0030   49.5820 O.3    201  EDO201      0.0000
      5 H          -8.4030   -9.1263   50.0690 H      201  EDO201      0.0000
      6 H          -8.1156  -10.7906   50.6260 H      201  EDO201      0.0000
      7 H          -6.8667   -8.4145   51.4726 H      201  EDO201      0.0000
      8 H          -6.1444   -9.0947   48.9884 H      201  EDO201      0.0000
      9 H          -7.1688  -10.4018   48.3575 H      201  EDO201      0.0000
     10 H          -5.3533  -10.8189   50.4712 H      201  EDO201      0.0000
@<TRIPOS>BOND
     1     1     2    1
     2     1     3    1
     3     1     5    1
     4     1     6    1
     5     2     7    1
     6     3     4    1
     7     3     8    1
     8     3     9    1
     9     4    10    1

