@<TRIPOS>MOLECULE
EDO_1_A_401
 10 9 0 0 0
SMALL
NO_CHARGES

@<TRIPOS>ATOM
      1 C1         16.0440   19.0260   44.4800 C.3    401  EDO401      0.0000
      2 O1         15.4630   20.1710   45.1370 O.3    401  EDO401      0.0000
      3 C2         17.3260   18.5770   45.1430 C.3    401  EDO401      0.0000
      4 O2         17.2370   18.5840   46.5700 O.3    401  EDO401      0.0000
      5 H          16.2280   19.2635   43.4108 H      401  EDO401      0.0000
      6 H          15.3070   18.1946   44.5036 H      401  EDO401      0.0000
      7 H          14.6639   20.3991   44.6811 H      401  EDO401      0.0000
      8 H          18.1561   19.2518   44.8438 H      401  EDO401      0.0000
      9 H          17.6076   17.5594   44.8019 H      401  EDO401      0.0000
     10 H          16.7250   19.3519   46.7987 H      401  EDO401      0.0000
@<TRIPOS>BOND
     1     1     2    1
     2     1     3    1
     3     1     5    1
     4     1     6    1
     5     2     7    1
     6     3     4    1
     7     3     8    1
     8     3     9    1
     9     4    10    1

