EDO_1_A_402
  -ISIS-            3D

 10  9  0  0  0  0  0  0  0  0  1 V2000
   18.9630   28.4310   37.0170 C   0  0  0  0  0
   20.0280   28.0120   37.8770 O   0  0  0  0  0
   17.7230   27.6150   37.3390 C   0  0  0  0  0
   17.9540   26.2340   37.0510 O   0  0  0  0  0
   19.2583   28.2945   35.9553 H   0  0  0  0  0
   18.7627   29.5119   37.1748 H   0  0  0  0  0
   20.7939   28.5327   37.6750 H   0  0  0  0  0
   16.8629   27.9656   36.7319 H   0  0  0  0  0
   17.4381   27.7310   38.4058 H   0  0  0  0  0
   18.7640   26.0032   37.4910 H   0  0  0  0  0
  1  2  1  0  0  0
  1  3  1  0  0  0
  1  5  1  0  0  0
  1  6  1  0  0  0
  2  7  1  0  0  0
  3  4  1  0  0  0
  3  8  1  0  0  0
  3  9  1  0  0  0
  4 10  1  0  0  0
M  END
$$$$
