@<TRIPOS>MOLECULE
EDO_1_A_402
 10 9 0 0 0
SMALL
NO_CHARGES

@<TRIPOS>ATOM
      1 C1         18.9630   28.4310   37.0170 C.3    402  EDO402      0.0000
      2 O1         20.0280   28.0120   37.8770 O.3    402  EDO402      0.0000
      3 C2         17.7230   27.6150   37.3390 C.3    402  EDO402      0.0000
      4 O2         17.9540   26.2340   37.0510 O.3    402  EDO402      0.0000
      5 H          19.2583   28.2945   35.9553 H      402  EDO402      0.0000
      6 H          18.7627   29.5119   37.1748 H      402  EDO402      0.0000
      7 H          20.7939   28.5327   37.6750 H      402  EDO402      0.0000
      8 H          16.8629   27.9656   36.7319 H      402  EDO402      0.0000
      9 H          17.4381   27.7310   38.4058 H      402  EDO402      0.0000
     10 H          18.7640   26.0032   37.4910 H      402  EDO402      0.0000
@<TRIPOS>BOND
     1     1     2    1
     2     1     3    1
     3     1     5    1
     4     1     6    1
     5     2     7    1
     6     3     4    1
     7     3     8    1
     8     3     9    1
     9     4    10    1

