EDO_1_A_406
  -ISIS-            3D

 10  9  0  0  0  0  0  0  0  0  1 V2000
   35.6150   -8.6660   36.0010 C   0  0  0  0  0
   35.1980   -8.7000   34.6250 O   0  0  0  0  0
   34.6980   -9.4520   36.9320 C   0  0  0  0  0
   33.9050  -10.4210   36.2180 O   0  0  0  0  0
   35.7178   -7.6160   36.3484 H   0  0  0  0  0
   36.6342   -9.1051   36.0477 H   0  0  0  0  0
   34.8187   -7.8593   34.4059 H   0  0  0  0  0
   34.0031   -8.7557   37.4469 H   0  0  0  0  0
   35.2805   -9.9657   37.7242 H   0  0  0  0  0
   34.0269  -10.2556   35.2902 H   0  0  0  0  0
  1  2  1  0  0  0
  1  3  1  0  0  0
  1  5  1  0  0  0
  1  6  1  0  0  0
  2  7  1  0  0  0
  3  4  1  0  0  0
  3  8  1  0  0  0
  3  9  1  0  0  0
  4 10  1  0  0  0
M  END
$$$$
