@<TRIPOS>MOLECULE
EDO_1_A_405
 10 9 0 0 0
SMALL
NO_CHARGES

@<TRIPOS>ATOM
      1 C1         36.7220   -5.7620    4.0800 C.3    405  EDO405      0.0000
      2 O1         37.7880   -6.3370    3.3050 O.3    405  EDO405      0.0000
      3 C2         37.3670   -5.0070    5.2260 C.3    405  EDO405      0.0000
      4 O2         38.2160   -3.9910    4.6980 O.3    405  EDO405      0.0000
      5 H          36.0571   -6.5645    4.4627 H      405  EDO405      0.0000
      6 H          36.1138   -5.0828    3.4463 H      405  EDO405      0.0000
      7 H          37.4016   -6.8220    2.5883 H      405  EDO405      0.0000
      8 H          37.9581   -5.6902    5.8715 H      405  EDO405      0.0000
      9 H          36.5942   -4.5353    5.8671 H      405  EDO405      0.0000
     10 H          38.7686   -4.4171    4.0524 H      405  EDO405      0.0000
@<TRIPOS>BOND
     1     1     2    1
     2     1     3    1
     3     1     5    1
     4     1     6    1
     5     2     7    1
     6     3     4    1
     7     3     8    1
     8     3     9    1
     9     4    10    1

