@<TRIPOS>MOLECULE
EDO_1_A_404
 10 9 0 0 0
SMALL
NO_CHARGES

@<TRIPOS>ATOM
      1 C1         19.5230  -11.3160   23.0050 C.3    404  EDO404      0.0000
      2 O1         18.7480  -10.1040   23.1460 O.3    404  EDO404      0.0000
      3 C2         18.8520  -12.4570   23.7680 C.3    404  EDO404      0.0000
      4 O2         17.6010  -12.0040   24.3030 O.3    404  EDO404      0.0000
      5 H          20.5520  -11.1478   23.3874 H      404  EDO404      0.0000
      6 H          19.6077  -11.5698   21.9272 H      404  EDO404      0.0000
      7 H          19.2386   -9.3924   22.7567 H      404  EDO404      0.0000
      8 H          19.4931  -12.8055   24.6036 H      404  EDO404      0.0000
      9 H          18.6732  -13.3275   23.1035 H      404  EDO404      0.0000
     10 H          17.2707  -11.3070   23.7509 H      404  EDO404      0.0000
@<TRIPOS>BOND
     1     1     2    1
     2     1     3    1
     3     1     5    1
     4     1     6    1
     5     2     7    1
     6     3     4    1
     7     3     8    1
     8     3     9    1
     9     4    10    1

