@<TRIPOS>MOLECULE
EDO_1_A_403
 10 9 0 0 0
SMALL
NO_CHARGES

@<TRIPOS>ATOM
      1 C1         20.0450    1.9770   36.7550 C.3    403  EDO403      0.0000
      2 O1         19.4480    0.7460   36.3470 O.3    403  EDO403      0.0000
      3 C2         21.0590    2.4200   35.7110 C.3    403  EDO403      0.0000
      4 O2         20.3900    2.9690   34.5680 O.3    403  EDO403      0.0000
      5 H          20.5490    1.8135   37.7302 H      403  EDO403      0.0000
      6 H          19.2638    2.7488   36.9160 H      403  EDO403      0.0000
      7 H          19.0341    0.9079   35.5080 H      403  EDO403      0.0000
      8 H          21.7062    1.5719   35.4031 H      403  EDO403      0.0000
      9 H          21.7227    3.1985   36.1444 H      403  EDO403      0.0000
     10 H          21.0477    3.2386   33.9409 H      403  EDO403      0.0000
@<TRIPOS>BOND
     1     1     2    1
     2     1     3    1
     3     1     5    1
     4     1     6    1
     5     2     7    1
     6     3     4    1
     7     3     8    1
     8     3     9    1
     9     4    10    1

