@<TRIPOS>MOLECULE
EDO_1_A_407
 10 9 0 0 0
SMALL
NO_CHARGES

@<TRIPOS>ATOM
      1 C1         18.0780   22.7240   30.6590 C.3    407  EDO407      0.0000
      2 O1         19.2390   22.7620   31.4860 O.3    407  EDO407      0.0000
      3 C2         16.8950   22.1750   31.4510 C.3    407  EDO407      0.0000
      4 O2         16.2870   21.0900   30.7390 O.3    407  EDO407      0.0000
      5 H          18.2826   22.1105   29.7564 H      407  EDO407      0.0000
      6 H          17.8592   23.7518   30.3027 H      407  EDO407      0.0000
      7 H          19.6124   21.8906   31.5097 H      407  EDO407      0.0000
      8 H          16.1434   22.9744   31.6227 H      407  EDO407      0.0000
      9 H          17.2187   21.8142   32.4500 H      407  EDO407      0.0000
     10 H          15.5354   20.7938   31.2352 H      407  EDO407      0.0000
@<TRIPOS>BOND
     1     1     2    1
     2     1     3    1
     3     1     5    1
     4     1     6    1
     5     2     7    1
     6     3     4    1
     7     3     8    1
     8     3     9    1
     9     4    10    1

