@<TRIPOS>MOLECULE
DMX_1_C_201
 36 36 0 0 0
SMALL
NO_CHARGES

@<TRIPOS>ATOM
      1 C1        -14.6610   -5.3810   -5.4850 C.ar   201  DMX201      0.0000
      2 C2        -14.4020   -6.6520   -5.0060 C.ar   201  DMX201      0.0000
      3 C3        -15.1520   -7.1580   -3.9490 C.ar   201  DMX201      0.0000
      4 C4        -16.1810   -6.4140   -3.3770 C.ar   201  DMX201      0.0000
      5 C5        -16.4250   -5.1310   -3.8640 C.ar   201  DMX201      0.0000
      6 C6        -15.6730   -4.6240   -4.9160 C.ar   201  DMX201      0.0000
      7 C7        -17.0210   -6.9800   -2.2110 C.3    201  DMX201      0.0000
      8 N8        -18.1950   -7.7710   -2.6280 N.4    201  DMX201      0.0000
      9 C9        -18.9060   -8.2310   -1.4510 C.3    201  DMX201      0.0000
     10 C10       -19.8200   -7.4830    0.7430 C.3    201  DMX201      0.0000
     11 S11       -18.5910   -6.8850    1.9330 S.3    201  DMX201      0.0000
     12 C12       -17.8090   -8.9520   -3.3900 C.3    201  DMX201      0.0000
     13 C13       -19.1190   -6.9900   -3.4360 C.3    201  DMX201      0.0000
     14 O14       -18.9860   -7.3310    3.3020 O.co2  201  DMX201     -1.0000
     15 O15       -17.2260   -7.4000    1.5540 O.co2  201  DMX201      0.0000
     16 O16       -18.5280   -5.3800    2.0330 O.co2  201  DMX201      0.0000
     17 C17       -19.3090   -7.0250   -0.6130 C.3    201  DMX201      0.0000
     18 H         -14.0654   -4.9714   -6.3187 H      201  DMX201      0.0000
     19 H         -13.5991   -7.2609   -5.4557 H      201  DMX201      0.0000
     20 H         -14.9252   -8.1675   -3.5660 H      201  DMX201      0.0000
     21 H         -17.2211   -4.5091   -3.4206 H      201  DMX201      0.0000
     22 H         -15.8806   -3.6101   -5.2991 H      201  DMX201      0.0000
     23 H         -17.3323   -6.0994   -1.6210 H      201  DMX201      0.0000
     24 H         -16.3916   -7.6211   -1.5514 H      201  DMX201      0.0000
     25 H         -18.2206   -8.9036   -0.8839 H      201  DMX201      0.0000
     26 H         -19.7876   -8.8385   -1.7614 H      201  DMX201      0.0000
     27 H         -20.7868   -7.0170    1.0260 H      201  DMX201      0.0000
     28 H         -19.8948   -8.5827    0.8618 H      201  DMX201      0.0000
     29 H         -18.7123   -9.5629   -3.6173 H      201  DMX201      0.0000
     30 H         -17.0877   -9.5568   -2.7946 H      201  DMX201      0.0000
     31 H         -17.3349   -8.6408   -4.3469 H      201  DMX201      0.0000
     32 H         -20.0716   -7.5500   -3.5747 H      201  DMX201      0.0000
     33 H         -18.6622   -6.8085   -4.4348 H      201  DMX201      0.0000
     34 H         -19.3146   -6.0047   -2.9603 H      201  DMX201      0.0000
     35 H         -20.1649   -6.5142   -1.1115 H      201  DMX201      0.0000
     36 H         -18.5545   -6.2349   -0.4727 H      201  DMX201      0.0000
@<TRIPOS>BOND
     1     1     2   ar
     2     1     6   ar
     3     1    18    1
     4     2     3   ar
     5     2    19    1
     6     3     4   ar
     7     3    20    1
     8     4     5   ar
     9     4     7    1
    10     5     6   ar
    11     5    21    1
    12     6    22    1
    13     7     8    1
    14     7    23    1
    15     7    24    1
    16     8     9    1
    17     8    12    1
    18     8    13    1
    19     9    17    1
    20     9    25    1
    21     9    26    1
    22    10    11    1
    23    10    17    1
    24    10    27    1
    25    10    28    1
    26    11    14    1
    27    11    15    2
    28    11    16    2
    29    12    29    1
    30    12    30    1
    31    12    31    1
    32    13    32    1
    33    13    33    1
    34    13    34    1
    35    17    35    1
    36    17    36    1

