WR1_1_B_602
  -ISIS-            3D

 55 56  0  0  0  0  0  0  0  0  1 V2000
   11.8500   55.6040   37.6710 O   0  0  0  0  0
   11.8950   56.4270   36.7570 C   0  0  0  0  0
   11.8700   56.0030   35.3670 O   0  0  0  0  0
   11.6860   54.6390   35.0260 C   0  0  0  0  0
   10.2190   54.3280   34.8480 C   0  0  0  0  0
    9.8740   53.2670   34.0180 C   0  0  0  0  0
    8.5310   52.9480   33.8270 C   0  0  0  0  0
    7.5360   53.6840   34.4670 C   0  0  0  0  0
    7.8780   54.7460   35.2950 C   0  0  0  0  0
    9.2210   55.0720   35.4900 C   0  0  0  0  0
   11.9750   57.7440   36.9150 N   0  0  0  0  0
   12.1320   58.4010   38.1940 C   0  0  0  0  0
   13.1790   59.4820   37.9610 C   0  0  0  0  0
   14.5090   58.8320   37.6240 C   0  0  0  0  0
   14.9340   58.7020   36.3000 C   0  0  0  0  0
   16.1620   58.1130   36.0080 C   0  0  0  0  0
   16.9620   57.6340   37.0420 C   0  0  0  0  0
   16.5380   57.7600   38.3630 C   0  0  0  0  0
   15.3180   58.3630   38.6520 C   0  0  0  0  0
   10.8260   58.9560   38.7030 C   0  0  0  0  0
    9.8430   58.8700   37.9960 O   0  0  0  0  0
   10.7730   59.4770   39.9470 N   0  0  0  0  0
    9.5240   59.8910   40.5860 C   0  0  0  0  0
    9.7150   61.2040   41.3560 C   0  0  0  0  0
    8.9830   58.8110   41.5040 C   0  0  0  0  0
    8.0960   59.0650   42.3050 O   0  0  0  0  0
    9.5440   57.4040   41.4330 C   0  0  0  0  0
    8.5180   56.3280   41.8130 C   0  0  0  0  0
    7.9120   55.7320   40.6770 O   0  0  0  0  0
   12.1203   53.9617   35.7896 H   0  0  0  0  0
   12.2285   54.4329   34.0800 H   0  0  0  0  0
   10.6509   52.6721   33.5078 H   0  0  0  0  0
    8.2538   52.1074   33.1679 H   0  0  0  0  0
    6.4743   53.4245   34.3149 H   0  0  0  0  0
    7.0911   55.3312   35.8008 H   0  0  0  0  0
    9.4703   55.9151   36.1532 H   0  0  0  0  0
   11.9055   58.3185   36.0651 H   0  0  0  0  0
   12.5137   57.6870   38.9625 H   0  0  0  0  0
   13.3016   60.1064   38.8748 H   0  0  0  0  0
   12.8614   60.1798   37.1535 H   0  0  0  0  0
   14.3039   59.0701   35.4727 H   0  0  0  0  0
   16.4968   58.0202   34.9608 H   0  0  0  0  0
   17.9310   57.1574   36.8155 H   0  0  0  0  0
   17.1735   57.3816   39.1820 H   0  0  0  0  0
   15.0007   58.4600   39.7044 H   0  0  0  0  0
   11.6444   59.5610   40.4884 H   0  0  0  0  0
    8.7396   60.0760   39.8129 H   0  0  0  0  0
    8.7595   61.5768   41.7884 H   0  0  0  0  0
   10.1051   62.0076   40.6914 H   0  0  0  0  0
   10.4382   61.0877   42.1943 H   0  0  0  0  0
   10.4120   57.3476   42.1286 H   0  0  0  0  0
    9.9385   57.1734   40.4208 H   0  0  0  0  0
    7.7346   56.7251   42.4915 H   0  0  0  0  0
    9.0382   55.5269   42.3839 H   0  0  0  0  0
    7.2608   55.1094   40.9718 H   0  0  0  0  0
  1  2  2  0  0  0
  2  3  1  0  0  0
  2 11  1  0  0  0
  3  4  1  0  0  0
  4  5  1  0  0  0
  4 30  1  0  0  0
  4 31  1  0  0  0
  5  6  2  0  0  0
  5 10  1  0  0  0
  6  7  1  0  0  0
  6 32  1  0  0  0
  7  8  2  0  0  0
  7 33  1  0  0  0
  8  9  1  0  0  0
  8 34  1  0  0  0
  9 10  2  0  0  0
  9 35  1  0  0  0
 10 36  1  0  0  0
 11 12  1  0  0  0
 11 37  1  0  0  0
 12 13  1  0  0  0
 12 20  1  0  0  0
 12 38  1  0  0  0
 13 14  1  0  0  0
 13 39  1  0  0  0
 13 40  1  0  0  0
 14 15  2  0  0  0
 14 19  1  0  0  0
 15 16  1  0  0  0
 15 41  1  0  0  0
 16 17  2  0  0  0
 16 42  1  0  0  0
 17 18  1  0  0  0
 17 43  1  0  0  0
 18 19  2  0  0  0
 18 44  1  0  0  0
 19 45  1  0  0  0
 20 21  2  0  0  0
 20 22  1  0  0  0
 22 23  1  0  0  0
 22 46  1  0  0  0
 23 24  1  0  0  0
 23 25  1  0  0  0
 23 47  1  0  0  0
 24 48  1  0  0  0
 24 49  1  0  0  0
 24 50  1  0  0  0
 25 26  2  0  0  0
 25 27  1  0  0  0
 27 28  1  0  0  0
 27 51  1  0  0  0
 27 52  1  0  0  0
 28 29  1  0  0  0
 28 53  1  0  0  0
 28 54  1  0  0  0
 29 55  1  0  0  0
M  END
$$$$
