@<TRIPOS>MOLECULE
WR1_1_A_601
 55 56 0 0 0
SMALL
NO_CHARGES

@<TRIPOS>ATOM
      1 O4         -6.5520   28.5150   71.1060 O.2    601  WR1601      0.0000
      2 C15        -6.5250   27.8900   72.1570 C.2    601  WR1601      0.0000
      3 O5         -6.2310   26.4680   72.1340 O.3    601  WR1601      0.0000
      4 C16        -5.5160   25.8180   71.0780 C.3    601  WR1601      0.0000
      5 C17        -4.1610   26.4210   70.7410 C.ar   601  WR1601      0.0000
      6 C18        -3.4620   25.9000   69.6440 C.ar   601  WR1601      0.0000
      7 C19        -2.2190   26.4200   69.2890 C.ar   601  WR1601      0.0000
      8 C20        -1.6640   27.4620   70.0320 C.ar   601  WR1601      0.0000
      9 C21        -2.3460   27.9720   71.1330 C.ar   601  WR1601      0.0000
     10 C22        -3.5920   27.4590   71.4880 C.ar   601  WR1601      0.0000
     11 N2         -6.6950   28.3820   73.3840 N.am   601  WR1601      0.0000
     12 C7         -6.9660   29.7610   73.7370 C.3    601  WR1601      0.0000
     13 C8         -8.1050   29.7830   74.7610 C.3    601  WR1601      0.0000
     14 C9         -9.3070   29.0590   74.1810 C.ar   601  WR1601      0.0000
     15 C10        -9.4620   27.6780   74.3360 C.ar   601  WR1601      0.0000
     16 C11       -10.5700   27.0350   73.7840 C.ar   601  WR1601      0.0000
     17 C12       -11.5180   27.7770   73.0800 C.ar   601  WR1601      0.0000
     18 C13       -11.3540   29.1540   72.9310 C.ar   601  WR1601      0.0000
     19 C14       -10.2570   29.7940   73.4820 C.ar   601  WR1601      0.0000
     20 C6         -5.7340   30.4410   74.3020 C.2    601  WR1601      0.0000
     21 O3         -4.6870   29.8150   74.4860 O.2    601  WR1601      0.0000
     22 N1         -5.8250   31.7550   74.5470 N.am   601  WR1601      0.0000
     23 C4         -4.6800   32.5560   74.9540 C.3    601  WR1601      0.0000
     24 C5         -5.1140   33.7280   75.8440 C.3    601  WR1601      0.0000
     25 C3         -3.8920   33.0250   73.7460 C.2    601  WR1601      0.0000
     26 O2         -3.2570   34.0880   73.8110 O.2    601  WR1601      0.0000
     27 C2         -3.8880   32.1160   72.5040 C.3    601  WR1601      0.0000
     28 C1         -3.0880   32.6100   71.2980 C.3    601  WR1601      0.0000
     29 O1         -2.5760   31.4720   70.6260 O.3    601  WR1601      0.0000
     30 H          -6.1444   25.8125   70.1625 H      601  WR1601      0.0000
     31 H          -5.3632   24.7541   71.3560 H      601  WR1601      0.0000
     32 H          -3.8928   25.0756   69.0500 H      601  WR1601      0.0000
     33 H          -1.6748   26.0101   68.4210 H      601  WR1601      0.0000
     34 H          -0.6821   27.8796   69.7509 H      601  WR1601      0.0000
     35 H          -1.9025   28.7903   71.7257 H      601  WR1601      0.0000
     36 H          -4.1002   27.8839   72.3662 H      601  WR1601      0.0000
     37 H          -6.5882   27.7112   74.1564 H      601  WR1601      0.0000
     38 H          -7.2875   30.3330   72.8337 H      601  WR1601      0.0000
     39 H          -8.3840   30.8269   75.0274 H      601  WR1601      0.0000
     40 H          -7.7856   29.2918   75.7083 H      601  WR1601      0.0000
     41 H          -8.7198   27.0845   74.8955 H      601  WR1601      0.0000
     42 H         -10.6960   25.9454   73.9033 H      601  WR1601      0.0000
     43 H         -12.3962   27.2745   72.6400 H      601  WR1601      0.0000
     44 H         -12.1058   29.7360   72.3706 H      601  WR1601      0.0000
     45 H         -10.1452   30.8844   73.3553 H      601  WR1601      0.0000
     46 H          -6.7245   32.2344   74.4089 H      601  WR1601      0.0000
     47 H          -3.9819   31.9331   75.5648 H      601  WR1601      0.0000
     48 H          -4.2424   34.3005   76.2332 H      601  WR1601      0.0000
     49 H          -5.6873   33.3714   76.7293 H      601  WR1601      0.0000
     50 H          -5.7661   34.4434   75.2943 H      601  WR1601      0.0000
     51 H          -4.9311   31.9189   72.1712 H      601  WR1601      0.0000
     52 H          -3.4580   31.1389   72.8185 H      601  WR1601      0.0000
     53 H          -2.2371   33.2467   71.6212 H      601  WR1601      0.0000
     54 H          -3.7264   33.2129   70.6172 H      601  WR1601      0.0000
     55 H          -2.1442   31.7575   69.8320 H      601  WR1601      0.0000
@<TRIPOS>BOND
     1     1     2    2
     2     2     3    1
     3     2    11    1
     4     3     4    1
     5     4     5    1
     6     4    30    1
     7     4    31    1
     8     5     6   ar
     9     5    10   ar
    10     6     7   ar
    11     6    32    1
    12     7     8   ar
    13     7    33    1
    14     8     9   ar
    15     8    34    1
    16     9    10   ar
    17     9    35    1
    18    10    36    1
    19    11    12    1
    20    11    37    1
    21    12    13    1
    22    12    20    1
    23    12    38    1
    24    13    14    1
    25    13    39    1
    26    13    40    1
    27    14    15   ar
    28    14    19   ar
    29    15    16   ar
    30    15    41    1
    31    16    17   ar
    32    16    42    1
    33    17    18   ar
    34    17    43    1
    35    18    19   ar
    36    18    44    1
    37    19    45    1
    38    20    21    2
    39    20    22    1
    40    22    23    1
    41    22    46    1
    42    23    24    1
    43    23    25    1
    44    23    47    1
    45    24    48    1
    46    24    49    1
    47    24    50    1
    48    25    26    2
    49    25    27    1
    50    27    28    1
    51    27    51    1
    52    27    52    1
    53    28    29    1
    54    28    53    1
    55    28    54    1
    56    29    55    1

