@<TRIPOS>MOLECULE
NOL_2_A_401
 93 95 0 0 0
SMALL
NO_CHARGES

@<TRIPOS>ATOM
      1 C1         25.7360   37.8130   42.2840 C.ar   401  NOL401      0.0000
      2 C2         25.1450   36.7190   42.9110 C.ar   401  NOL401      0.0000
      3 C3         24.4770   36.9090   44.1310 C.ar   401  NOL401      0.0000
      4 C4         24.3920   38.1850   44.6980 C.ar   401  NOL401      0.0000
      5 C5         24.9750   39.2860   44.0570 C.ar   401  NOL401      0.0000
      6 C6         25.6550   39.0960   42.8520 C.ar   401  NOL401      0.0000
      7 C13        25.2470   35.3080   42.2780 C.3    401  NOL401      0.0000
      8 O15        24.4610   35.1810   41.1020 O.3    401  NOL401      0.0000
      9 C17        23.0700   34.9580   41.2140 C.2    401  NOL401      0.0000
     10 N19        22.2470   35.0720   40.0360 N.am   401  NOL401      0.0000
     11 C21        20.8210   34.9990   40.1850 C.3    401  NOL401      0.0000
     12 C23        20.4130   33.7070   39.5100 C.2    401  NOL401      0.0000
     13 N25        19.7050   32.6800   40.2390 N.am   401  NOL401      0.0000
     14 C27        19.2700   31.4630   39.6390 C.3    401  NOL401      0.0000
     15 C29        18.1490   31.6880   38.6180 C.2    401  NOL401      0.0000
     16 N31        18.1790   30.9670   37.3760 N.am   401  NOL401      0.0000
     17 C33        17.1730   31.0640   36.3630 C.3    401  NOL401      0.0000
     18 C35        16.8640   29.6700   35.9590 C.3    401  NOL401      0.0000
     19 O39        15.5030   29.6870   35.5710 O.3    401  NOL401      0.0000
     20 C41        17.6830   31.8390   35.1420 C.3    401  NOL401      0.0000
     21 C43        18.0150   33.2670   35.4750 C.3    401  NOL401      0.0000
     22 C45        16.7310   34.0180   35.8600 C.3    401  NOL401      0.0000
     23 C47        17.0940   35.4870   35.5250 C.3    401  NOL401      0.0000
     24 N49        17.9840   35.3830   34.4000 N.am   401  NOL401      0.0000
     25 C51        18.5760   33.9990   34.3090 C.2    401  NOL401      0.0000
     26 O54        19.3660   33.6310   33.4660 O.2    401  NOL401      0.0000
     27 O56        17.2500   32.4070   38.8810 O.2    401  NOL401      0.0000
     28 C58        18.8360   30.3830   40.6370 C.3    401  NOL401      0.0000
     29 C60        19.7810   30.2740   41.8630 C.3    401  NOL401      0.0000
     30 C62        21.1310   29.7490   41.3530 C.3    401  NOL401      0.0000
     31 C63        22.0390   29.0830   42.3970 C.3    401  NOL401      0.0000
     32 C64        21.3450   28.5660   43.6590 C.3    401  NOL401      0.0000
     33 C65        19.8710   28.2420   43.4600 C.3    401  NOL401      0.0000
     34 C66        19.0860   29.4420   42.9600 C.3    401  NOL401      0.0000
     35 O73        20.6950   33.5550   38.3820 O.2    401  NOL401      0.0000
     36 C75        20.2120   36.2330   39.5060 C.3    401  NOL401      0.0000
     37 C77        18.6960   36.0640   39.4160 C.3    401  NOL401      0.0000
     38 O79        20.6150   37.3940   40.2590 O.3    401  NOL401      0.0000
     39 C81        21.0210   38.6030   39.6670 C.3    401  NOL401      0.0000
     40 C83        21.0920   39.6520   40.7730 C.3    401  NOL401      0.0000
     41 C85        22.4100   38.4800   39.0610 C.3    401  NOL401      0.0000
     42 C87        20.0440   39.0710   38.5830 C.3    401  NOL401      0.0000
     43 O89        22.5190   34.6810   42.2390 O.2    401  NOL401      0.0000
     44 H          26.2719   37.6780   41.3290 H      401  NOL401      0.0000
     45 H          24.0094   36.0535   44.6471 H      401  NOL401      0.0000
     46 H          23.8598   38.3257   45.6543 H      401  NOL401      0.0000
     47 H          24.9015   40.2924   44.5028 H      401  NOL401      0.0000
     48 H          26.1256   39.9543   42.3429 H      401  NOL401      0.0000
     49 H          24.9761   34.5324   43.0235 H      401  NOL401      0.0000
     50 H          26.3104   35.1174   42.0232 H      401  NOL401      0.0000
     51 H          22.6830   35.2033   39.1147 H      401  NOL401      0.0000
     52 H          20.4918   34.9793   41.2473 H      401  NOL401      0.0000
     53 H          19.4778   32.8743   41.2218 H      401  NOL401      0.0000
     54 H          20.1308   31.0377   39.0677 H      401  NOL401      0.0000
     55 H          18.9918   30.3591   37.1998 H      401  NOL401      0.0000
     56 H          16.2543   31.5454   36.7687 H      401  NOL401      0.0000
     57 H          16.9712   28.9667   36.8144 H      401  NOL401      0.0000
     58 H          17.5088   29.2968   35.1356 H      401  NOL401      0.0000
     59 H          15.2517   28.8121   35.3066 H      401  NOL401      0.0000
     60 H          16.9253   31.8034   34.3251 H      401  NOL401      0.0000
     61 H          18.5962   31.3370   34.7447 H      401  NOL401      0.0000
     62 H          18.7555   33.3237   36.3065 H      401  NOL401      0.0000
     63 H          16.4536   33.9041   36.9302 H      401  NOL401      0.0000
     64 H          15.8692   33.6940   35.2322 H      401  NOL401      0.0000
     65 H          17.5977   35.9718   36.3917 H      401  NOL401      0.0000
     66 H          16.1790   36.0754   35.2898 H      401  NOL401      0.0000
     67 H          18.2131   36.1279   33.7303 H      401  NOL401      0.0000
     68 H          18.7268   29.3993   40.1250 H      401  NOL401      0.0000
     69 H          17.8191   30.6569   41.0054 H      401  NOL401      0.0000
     70 H          19.9611   31.2810   42.3059 H      401  NOL401      0.0000
     71 H          21.6948   30.5632   40.8418 H      401  NOL401      0.0000
     72 H          20.9311   28.9825   40.5674 H      401  NOL401      0.0000
     73 H          22.8313   29.8062   42.7028 H      401  NOL401      0.0000
     74 H          22.5812   28.2394   41.9083 H      401  NOL401      0.0000
     75 H          21.4266   29.3411   44.4572 H      401  NOL401      0.0000
     76 H          21.8840   27.6702   44.0460 H      401  NOL401      0.0000
     77 H          19.4278   27.8642   44.4106 H      401  NOL401      0.0000
     78 H          19.7831   27.4119   42.7205 H      401  NOL401      0.0000
     79 H          18.0873   29.0888   42.6150 H      401  NOL401      0.0000
     80 H          18.8752   30.1114   43.8275 H      401  NOL401      0.0000
     81 H          20.6136   36.2964   38.4702 H      401  NOL401      0.0000
     82 H          18.2079   36.9506   38.9596 H      401  NOL401      0.0000
     83 H          18.2390   35.9263   40.4201 H      401  NOL401      0.0000
     84 H          18.4026   35.1907   38.7953 H      401  NOL401      0.0000
     85 H          21.4181   40.6444   40.3921 H      401  NOL401      0.0000
     86 H          21.8053   39.3595   41.5750 H      401  NOL401      0.0000
     87 H          20.1034   39.8002   41.2604 H      401  NOL401      0.0000
     88 H          22.7798   39.4492   38.6610 H      401  NOL401      0.0000
     89 H          22.4389   37.7562   38.2183 H      401  NOL401      0.0000
     90 H          23.1565   38.1322   39.8086 H      401  NOL401      0.0000
     91 H          20.3395   40.0576   38.1639 H      401  NOL401      0.0000
     92 H          19.0136   39.1916   38.9823 H      401  NOL401      0.0000
     93 H          19.9866   38.3694   37.7236 H      401  NOL401      0.0000
@<TRIPOS>BOND
     1     1     2   ar
     2     1     6   ar
     3     1    44    1
     4     2     3   ar
     5     2     7    1
     6     3     4   ar
     7     3    45    1
     8     4     5   ar
     9     4    46    1
    10     5     6   ar
    11     5    47    1
    12     6    48    1
    13     7     8    1
    14     7    49    1
    15     7    50    1
    16     8     9    1
    17     9    10    1
    18     9    43    2
    19    10    11    1
    20    10    51    1
    21    11    12    1
    22    11    36    1
    23    11    52    1
    24    12    13    1
    25    12    35    2
    26    13    14    1
    27    13    53    1
    28    14    15    1
    29    14    28    1
    30    14    54    1
    31    15    16    1
    32    15    27    2
    33    16    17    1
    34    16    55    1
    35    17    18    1
    36    17    20    1
    37    17    56    1
    38    18    19    1
    39    18    57    1
    40    18    58    1
    41    19    59    1
    42    20    21    1
    43    20    60    1
    44    20    61    1
    45    21    22    1
    46    21    25    1
    47    21    62    1
    48    22    23    1
    49    22    63    1
    50    22    64    1
    51    23    24    1
    52    23    65    1
    53    23    66    1
    54    24    25    1
    55    24    67    1
    56    25    26    2
    57    28    29    1
    58    28    68    1
    59    28    69    1
    60    29    30    1
    61    29    34    1
    62    29    70    1
    63    30    31    1
    64    30    71    1
    65    30    72    1
    66    31    32    1
    67    31    73    1
    68    31    74    1
    69    32    33    1
    70    32    75    1
    71    32    76    1
    72    33    34    1
    73    33    77    1
    74    33    78    1
    75    34    79    1
    76    34    80    1
    77    36    37    1
    78    36    38    1
    79    36    81    1
    80    37    82    1
    81    37    83    1
    82    37    84    1
    83    38    39    1
    84    39    40    1
    85    39    41    1
    86    39    42    1
    87    40    85    1
    88    40    86    1
    89    40    87    1
    90    41    88    1
    91    41    89    1
    92    41    90    1
    93    42    91    1
    94    42    92    1
    95    42    93    1

