XAN_1_A_201
  -ISIS-            3D

 15 16  0  0  0  0  0  0  0  0  1 V2000
  -45.5240  -29.2750    6.9800 N   0  0  0  0  0
  -46.7150  -29.1610    6.3730 C   0  0  0  0  0
  -48.0010  -29.1550    6.8300 N   0  0  0  0  0
  -49.0410  -29.0230    5.9900 C   0  0  0  0  0
  -50.1580  -29.0380    6.4030 O   0  0  0  0  0
  -48.7660  -28.8920    4.6920 N   0  0  0  0  0
  -47.5630  -28.8780    4.1940 C   0  0  0  0  0
  -47.3890  -28.7320    3.0310 O   0  0  0  0  0
  -46.4560  -29.0510    5.0470 C   0  0  0  0  0
  -45.1050  -29.0860    4.8820 N   0  0  0  0  0
  -44.5950  -29.2280    6.0700 C   0  0  0  0  0
  -44.4491  -29.0014    3.7435 H   0  0  0  0  0
  -43.5073  -29.2889    6.1982 H   0  0  0  0  0
  -49.5592  -28.7878    4.0455 H   0  0  0  0  0
  -48.1093  -29.2595    7.8455 H   0  0  0  0  0
  1  2  1  0  0  0
  1 11  1  0  0  0
  2  3  1  0  0  0
  2  9  2  0  0  0
  3  4  1  0  0  0
  3 15  1  0  0  0
  4  5  2  0  0  0
  4  6  1  0  0  0
  6  7  1  0  0  0
  6 14  1  0  0  0
  7  8  2  0  0  0
  7  9  1  0  0  0
  9 10  1  0  0  0
 10 11  2  0  0  0
 10 12  1  0  0  0
 11 13  1  0  0  0
M  END
$$$$
