@<TRIPOS>MOLECULE
DMS_1_A_404
 10 9 0 0 0
SMALL
NO_CHARGES

@<TRIPOS>ATOM
      1 S         -23.9720   -3.7940    9.3540 S.o    404  DMS404      0.0000
      2 O         -25.0330   -3.0900   10.1380 O.2    404  DMS404      0.0000
      3 C1        -23.1710   -5.0570   10.3800 C.3    404  DMS404      0.0000
      4 C2        -22.5720   -2.6760    9.0700 C.3    404  DMS404      0.0000
      5 H         -22.3489   -5.5335    9.8078 H      404  DMS404      0.0000
      6 H         -23.9174   -5.8287   10.6587 H      404  DMS404      0.0000
      7 H         -22.7633   -4.5907   11.3003 H      404  DMS404      0.0000
      8 H         -21.7660   -3.2189    8.5353 H      404  DMS404      0.0000
      9 H         -22.1880   -2.3003   10.0405 H      404  DMS404      0.0000
     10 H         -22.9083   -1.8191    8.4512 H      404  DMS404      0.0000
@<TRIPOS>BOND
     1     1     2    2
     2     1     3    1
     3     1     4    1
     4     3     5    1
     5     3     6    1
     6     3     7    1
     7     4     8    1
     8     4     9    1
     9     4    10    1

