@<TRIPOS>MOLECULE
DMS_1_A_407
 10 9 0 0 0
SMALL
NO_CHARGES

@<TRIPOS>ATOM
      1 S           0.0970  -12.1390   17.6790 S.o    407  DMS407      0.0000
      2 O           0.1990  -13.3770   16.8460 O.2    407  DMS407      0.0000
      3 C1          1.7310  -11.3580   17.7690 C.3    407  DMS407      0.0000
      4 C2         -0.0940  -12.5810   19.4280 C.3    407  DMS407      0.0000
      5 H           1.6859  -10.4773   18.4418 H      407  DMS407      0.0000
      6 H           2.0336  -11.0263   16.7547 H      407  DMS407      0.0000
      7 H           2.4759  -12.0840   18.1545 H      407  DMS407      0.0000
      8 H          -0.0864  -11.6608   20.0473 H      407  DMS407      0.0000
      9 H           0.7347  -13.2486   19.7413 H      407  DMS407      0.0000
     10 H          -1.0607  -13.1066   19.5680 H      407  DMS407      0.0000
@<TRIPOS>BOND
     1     1     2    2
     2     1     3    1
     3     1     4    1
     4     3     5    1
     5     3     6    1
     6     3     7    1
     7     4     8    1
     8     4     9    1
     9     4    10    1

