DMS_1_B_404
  -ISIS-            3D

 10  9  0  0  0  0  0  0  0  0  1 V2000
   -6.9630    3.4360   11.7780 S   0  0  0  0  0
   -7.8350    2.2920   11.3710 O   0  0  0  0  0
   -7.6280    4.9840   11.1040 C   0  0  0  0  0
   -5.3850    3.3460   10.8880 C   0  0  0  0  0
   -6.9460    5.8216   11.3562 H   0  0  0  0  0
   -8.6250    5.1777   11.5499 H   0  0  0  0  0
   -7.7275    4.9027   10.0021 H   0  0  0  0  0
   -4.7630    4.2275   11.1455 H   0  0  0  0  0
   -5.5702    3.3268    9.7944 H   0  0  0  0  0
   -4.8497    2.4215   11.1865 H   0  0  0  0  0
  1  2  2  0  0  0
  1  3  1  0  0  0
  1  4  1  0  0  0
  3  5  1  0  0  0
  3  6  1  0  0  0
  3  7  1  0  0  0
  4  8  1  0  0  0
  4  9  1  0  0  0
  4 10  1  0  0  0
M  END
$$$$
