@<TRIPOS>MOLECULE
EDO_1_A_603
 10 9 0 0 0
SMALL
NO_CHARGES

@<TRIPOS>ATOM
      1 C1          5.3270  -15.9360   21.5970 C.3    603  EDO603      0.0000
      2 O1          4.3440  -15.2800   22.4080 O.3    603  EDO603      0.0000
      3 C2          6.5160  -15.0100   21.4310 C.3    603  EDO603      0.0000
      4 O2          7.1570  -14.8900   22.7050 O.3    603  EDO603      0.0000
      5 H           4.8759  -16.1677   20.6101 H      603  EDO603      0.0000
      6 H           5.6206  -16.9007   22.0607 H      603  EDO603      0.0000
      7 H           4.8002  -14.9568   23.1764 H      603  EDO603      0.0000
      8 H           6.1968  -14.0067   21.0811 H      603  EDO603      0.0000
      9 H           7.2293  -15.4106   20.6799 H      603  EDO603      0.0000
     10 H           7.8580  -15.5265   22.7532 H      603  EDO603      0.0000
@<TRIPOS>BOND
     1     1     2    1
     2     1     3    1
     3     1     5    1
     4     1     6    1
     5     2     7    1
     6     3     4    1
     7     3     8    1
     8     3     9    1
     9     4    10    1

