EDO_1_M_304
  -ISIS-            3D

 10  9  0  0  0  0  0  0  0  0  1 V2000
  -15.6220  -77.0880   30.3740 C   0  0  0  0  0
  -15.3610  -75.7260   30.7320 O   0  0  0  0  0
  -14.3550  -77.7040   29.7590 C   0  0  0  0  0
  -13.2900  -77.9530   30.6950 O   0  0  0  0  0
  -16.4688  -77.1333   29.6568 H   0  0  0  0  0
  -15.9269  -77.6521   31.2792 H   0  0  0  0  0
  -15.5306  -75.1766   29.9780 H   0  0  0  0  0
  -13.9739  -77.0566   28.9412 H   0  0  0  0  0
  -14.6190  -78.6731   29.2857 H   0  0  0  0  0
  -13.1831  -77.1570   31.2011 H   0  0  0  0  0
  1  2  1  0  0  0
  1  3  1  0  0  0
  1  5  1  0  0  0
  1  6  1  0  0  0
  2  7  1  0  0  0
  3  4  1  0  0  0
  3  8  1  0  0  0
  3  9  1  0  0  0
  4 10  1  0  0  0
M  END
$$$$
