EDO_1_A_605
  -ISIS-            3D

 10  9  0  0  0  0  0  0  0  0  1 V2000
  -13.8550  -38.2360   31.9580 C   0  0  0  0  0
  -14.9050  -37.4040   31.4460 O   0  0  0  0  0
  -13.4540  -39.2610   30.8960 C   0  0  0  0  0
  -14.5410  -39.5500   30.0080 O   0  0  0  0  0
  -14.2364  -38.7571   32.8608 H   0  0  0  0  0
  -12.9881  -37.6215   32.2787 H   0  0  0  0  0
  -14.5167  -36.7672   30.8600 H   0  0  0  0  0
  -13.1000  -40.2007   31.3676 H   0  0  0  0  0
  -12.6109  -38.8665   30.2911 H   0  0  0  0  0
  -15.3060  -39.0823   30.3211 H   0  0  0  0  0
  1  2  1  0  0  0
  1  3  1  0  0  0
  1  5  1  0  0  0
  1  6  1  0  0  0
  2  7  1  0  0  0
  3  4  1  0  0  0
  3  8  1  0  0  0
  3  9  1  0  0  0
  4 10  1  0  0  0
M  END
$$$$
