@<TRIPOS>MOLECULE
EDO_1_A_606
 10 9 0 0 0
SMALL
NO_CHARGES

@<TRIPOS>ATOM
      1 C1        -18.8320  -23.0680   23.1210 C.3    606  EDO606      0.0000
      2 O1        -18.0020  -22.2400   23.9690 O.3    606  EDO606      0.0000
      3 C2        -18.3980  -22.9850   21.6530 C.3    606  EDO606      0.0000
      4 O2        -18.6650  -24.2310   20.9840 O.3    606  EDO606      0.0000
      5 H         -19.8896  -22.7500   23.2272 H      606  EDO606      0.0000
      6 H         -18.7775  -24.1174   23.4815 H      606  EDO606      0.0000
      7 H         -17.2213  -22.7311   24.1885 H      606  EDO606      0.0000
      8 H         -17.3087  -22.7779   21.5889 H      606  EDO606      0.0000
      9 H         -18.9238  -22.1537   21.1383 H      606  EDO606      0.0000
     10 H         -18.4330  -24.1320   20.0699 H      606  EDO606      0.0000
@<TRIPOS>BOND
     1     1     2    1
     2     1     3    1
     3     1     5    1
     4     1     6    1
     5     2     7    1
     6     3     4    1
     7     3     8    1
     8     3     9    1
     9     4    10    1

