@<TRIPOS>MOLECULE
EDO_1_M_303
 10 9 0 0 0
SMALL
NO_CHARGES

@<TRIPOS>ATOM
      1 C1        -22.5330  -47.9870   20.3290 C.3    303  EDO303      0.0000
      2 O1        -22.3510  -48.7810   21.5120 O.3    303  EDO303      0.0000
      3 C2        -21.2010  -47.4520   19.8090 C.3    303  EDO303      0.0000
      4 O2        -20.2150  -48.4740   19.8730 O.3    303  EDO303      0.0000
      5 H         -23.2322  -47.1546   20.5500 H      303  EDO303      0.0000
      6 H         -23.0161  -48.6172   19.5524 H      303  EDO303      0.0000
      7 H         -21.5570  -49.2850   21.3723 H      303  EDO303      0.0000
      8 H         -20.8733  -46.5915   20.4306 H      303  EDO303      0.0000
      9 H         -21.3080  -47.0880   18.7655 H      303  EDO303      0.0000
     10 H         -19.3971  -48.1193   19.5511 H      303  EDO303      0.0000
@<TRIPOS>BOND
     1     1     2    1
     2     1     3    1
     3     1     5    1
     4     1     6    1
     5     2     7    1
     6     3     4    1
     7     3     8    1
     8     3     9    1
     9     4    10    1

