EDO_1_L_301
  -ISIS-            3D

 10  9  0  0  0  0  0  0  0  0  1 V2000
  -24.5010   -9.1400   15.5400 C   0  0  0  0  0
  -24.8470   -8.0870   14.6150 O   0  0  0  0  0
  -22.9760   -9.1900   15.6860 C   0  0  0  0  0
  -22.4960   -8.0090   16.3660 O   0  0  0  0  0
  -24.8853  -10.1027   15.1444 H   0  0  0  0  0
  -24.9924   -8.9615   16.5191 H   0  0  0  0  0
  -24.4330   -7.2974   14.9425 H   0  0  0  0  0
  -22.4924   -9.2731   14.6898 H   0  0  0  0  0
  -22.6852  -10.0885   16.2708 H   0  0  0  0  0
  -21.5536   -8.0765   16.4429 H   0  0  0  0  0
  1  2  1  0  0  0
  1  3  1  0  0  0
  1  5  1  0  0  0
  1  6  1  0  0  0
  2  7  1  0  0  0
  3  4  1  0  0  0
  3  8  1  0  0  0
  3  9  1  0  0  0
  4 10  1  0  0  0
M  END
$$$$
