EDO_1_M_302
  -ISIS-            3D

 10  9  0  0  0  0  0  0  0  0  1 V2000
   -0.7050  -54.1870   34.1860 C   0  0  0  0  0
   -1.9390  -53.4610   34.1370 O   0  0  0  0  0
   -0.2420  -54.7250   32.8350 C   0  0  0  0  0
    0.2550  -53.6600   32.0070 O   0  0  0  0  0
   -0.8163  -55.0303   34.9013 H   0  0  0  0  0
    0.0765  -53.5251   34.6142 H   0  0  0  0  0
   -2.6538  -54.0834   34.1051 H   0  0  0  0  0
   -1.0681  -55.2514   32.3132 H   0  0  0  0  0
    0.5740  -55.4635   32.9782 H   0  0  0  0  0
   -0.4078  -52.9804   32.0006 H   0  0  0  0  0
  1  2  1  0  0  0
  1  3  1  0  0  0
  1  5  1  0  0  0
  1  6  1  0  0  0
  2  7  1  0  0  0
  3  4  1  0  0  0
  3  8  1  0  0  0
  3  9  1  0  0  0
  4 10  1  0  0  0
M  END
$$$$
