@<TRIPOS>MOLECULE
EDO_1_A_604
 10 9 0 0 0
SMALL
NO_CHARGES

@<TRIPOS>ATOM
      1 C1          2.8700  -38.8330   19.2920 C.3    604  EDO604      0.0000
      2 O1          2.1310  -40.0850   19.2400 O.3    604  EDO604      0.0000
      3 C2          2.3310  -37.8750   20.3610 C.3    604  EDO604      0.0000
      4 O2          1.8130  -38.6110   21.4750 O.3    604  EDO604      0.0000
      5 H           2.8495  -38.3449   18.2949 H      604  EDO604      0.0000
      6 H           3.9335  -39.0651   19.5155 H      604  EDO604      0.0000
      7 H           2.5298  -40.6333   18.5777 H      604  EDO604      0.0000
      8 H           1.5111  -37.2582   19.9364 H      604  EDO604      0.0000
      9 H           3.1193  -37.1766   20.7085 H      604  EDO604      0.0000
     10 H           1.4377  -39.4102   21.1222 H      604  EDO604      0.0000
@<TRIPOS>BOND
     1     1     2    1
     2     1     3    1
     3     1     5    1
     4     1     6    1
     5     2     7    1
     6     3     4    1
     7     3     8    1
     8     3     9    1
     9     4    10    1

