@<TRIPOS>MOLECULE
EDO_1_N_302
 10 9 0 0 0
SMALL
NO_CHARGES

@<TRIPOS>ATOM
      1 C1        -12.4760  -91.7430   18.3370 C.3    302  EDO302      0.0000
      2 O1        -11.1480  -92.3300   18.2500 O.3    302  EDO302      0.0000
      3 C2        -12.9540  -91.1990   16.9820 C.3    302  EDO302      0.0000
      4 O2        -12.0120  -90.2570   16.4350 O.3    302  EDO302      0.0000
      5 H         -12.4599  -90.9211   19.0841 H      302  EDO302      0.0000
      6 H         -13.1908  -92.5078   18.7079 H      302  EDO302      0.0000
      7 H         -10.9107  -92.6461   19.1115 H      302  EDO302      0.0000
      8 H         -13.9389  -90.7000   17.0916 H      302  EDO302      0.0000
      9 H         -13.0905  -92.0334   16.2623 H      302  EDO302      0.0000
     10 H         -11.1536  -90.6506   16.5417 H      302  EDO302      0.0000
@<TRIPOS>BOND
     1     1     2    1
     2     1     3    1
     3     1     5    1
     4     1     6    1
     5     2     7    1
     6     3     4    1
     7     3     8    1
     8     3     9    1
     9     4    10    1

