@<TRIPOS>MOLECULE
EDO_1_A_602
 10 9 0 0 0
SMALL
NO_CHARGES

@<TRIPOS>ATOM
      1 C1          3.0730  -20.8260   32.9330 C.3    602  EDO602      0.0000
      2 O1          2.8810  -19.5300   32.3560 O.3    602  EDO602      0.0000
      3 C2          4.5140  -21.0030   33.4000 C.3    602  EDO602      0.0000
      4 O2          4.8470  -19.9880   34.3570 O.3    602  EDO602      0.0000
      5 H           2.8006  -21.6134   32.1980 H      602  EDO602      0.0000
      6 H           2.3794  -20.9373   33.7923 H      602  EDO602      0.0000
      7 H           3.1081  -19.5736   31.4364 H      602  EDO602      0.0000
      8 H           5.2154  -20.9439   32.5417 H      602  EDO602      0.0000
      9 H           4.6517  -21.9989   33.8686 H      602  EDO602      0.0000
     10 H           4.4709  -19.1773   34.0333 H      602  EDO602      0.0000
@<TRIPOS>BOND
     1     1     2    1
     2     1     3    1
     3     1     5    1
     4     1     6    1
     5     2     7    1
     6     3     4    1
     7     3     8    1
     8     3     9    1
     9     4    10    1

