@<TRIPOS>MOLECULE
EDO_1_M_302
 10 9 0 0 0
SMALL
NO_CHARGES

@<TRIPOS>ATOM
      1 C1         -0.7050  -54.1870   34.1860 C.3    302  EDO302      0.0000
      2 O1         -1.9390  -53.4610   34.1370 O.3    302  EDO302      0.0000
      3 C2         -0.2420  -54.7250   32.8350 C.3    302  EDO302      0.0000
      4 O2          0.2550  -53.6600   32.0070 O.3    302  EDO302      0.0000
      5 H          -0.8163  -55.0303   34.9013 H      302  EDO302      0.0000
      6 H           0.0765  -53.5251   34.6142 H      302  EDO302      0.0000
      7 H          -2.6538  -54.0834   34.1051 H      302  EDO302      0.0000
      8 H          -1.0681  -55.2514   32.3132 H      302  EDO302      0.0000
      9 H           0.5740  -55.4635   32.9782 H      302  EDO302      0.0000
     10 H          -0.4078  -52.9804   32.0006 H      302  EDO302      0.0000
@<TRIPOS>BOND
     1     1     2    1
     2     1     3    1
     3     1     5    1
     4     1     6    1
     5     2     7    1
     6     3     4    1
     7     3     8    1
     8     3     9    1
     9     4    10    1

