EDO_1_N_301
  -ISIS-            3D

 10  9  0  0  0  0  0  0  0  0  1 V2000
    5.6210  -66.8460   21.0690 C   0  0  0  0  0
    4.3290  -67.2900   21.5460 O   0  0  0  0  0
    6.4210  -68.0940   20.6780 C   0  0  0  0  0
    5.8680  -68.7560   19.5210 O   0  0  0  0  0
    6.1321  -66.2868   21.8793 H   0  0  0  0  0
    5.4949  -66.1588   20.2069 H   0  0  0  0  0
    3.9610  -67.8324   20.8584 H   0  0  0  0  0
    6.4596  -68.8062   21.5295 H   0  0  0  0  0
    7.4691  -67.8012   20.4543 H   0  0  0  0  0
    6.4057  -69.5126   19.3288 H   0  0  0  0  0
  1  2  1  0  0  0
  1  3  1  0  0  0
  1  5  1  0  0  0
  1  6  1  0  0  0
  2  7  1  0  0  0
  3  4  1  0  0  0
  3  8  1  0  0  0
  3  9  1  0  0  0
  4 10  1  0  0  0
M  END
$$$$
