@<TRIPOS>MOLECULE
EDO_1_L_301
 10 9 0 0 0
SMALL
NO_CHARGES

@<TRIPOS>ATOM
      1 C1        -24.5010   -9.1400   15.5400 C.3    301  EDO301      0.0000
      2 O1        -24.8470   -8.0870   14.6150 O.3    301  EDO301      0.0000
      3 C2        -22.9760   -9.1900   15.6860 C.3    301  EDO301      0.0000
      4 O2        -22.4960   -8.0090   16.3660 O.3    301  EDO301      0.0000
      5 H         -24.8853  -10.1027   15.1444 H      301  EDO301      0.0000
      6 H         -24.9924   -8.9615   16.5191 H      301  EDO301      0.0000
      7 H         -24.4330   -7.2974   14.9425 H      301  EDO301      0.0000
      8 H         -22.4924   -9.2731   14.6898 H      301  EDO301      0.0000
      9 H         -22.6852  -10.0885   16.2708 H      301  EDO301      0.0000
     10 H         -21.5536   -8.0765   16.4429 H      301  EDO301      0.0000
@<TRIPOS>BOND
     1     1     2    1
     2     1     3    1
     3     1     5    1
     4     1     6    1
     5     2     7    1
     6     3     4    1
     7     3     8    1
     8     3     9    1
     9     4    10    1

