EDO_1_A_606
  -ISIS-            3D

 10  9  0  0  0  0  0  0  0  0  1 V2000
  -18.8320  -23.0680   23.1210 C   0  0  0  0  0
  -18.0020  -22.2400   23.9690 O   0  0  0  0  0
  -18.3980  -22.9850   21.6530 C   0  0  0  0  0
  -18.6650  -24.2310   20.9840 O   0  0  0  0  0
  -19.8896  -22.7500   23.2272 H   0  0  0  0  0
  -18.7775  -24.1174   23.4815 H   0  0  0  0  0
  -17.2213  -22.7311   24.1885 H   0  0  0  0  0
  -17.3087  -22.7779   21.5889 H   0  0  0  0  0
  -18.9238  -22.1537   21.1383 H   0  0  0  0  0
  -18.4330  -24.1320   20.0699 H   0  0  0  0  0
  1  2  1  0  0  0
  1  3  1  0  0  0
  1  5  1  0  0  0
  1  6  1  0  0  0
  2  7  1  0  0  0
  3  4  1  0  0  0
  3  8  1  0  0  0
  3  9  1  0  0  0
  4 10  1  0  0  0
M  END
$$$$
