@<TRIPOS>MOLECULE
EDO_1_M_301
 10 9 0 0 0
SMALL
NO_CHARGES

@<TRIPOS>ATOM
      1 C1          3.1720  -56.0290   30.4810 C.3    301  EDO301      0.0000
      2 O1          1.7860  -55.8080   30.7500 O.3    301  EDO301      0.0000
      3 C2          4.0110  -54.8370   30.9250 C.3    301  EDO301      0.0000
      4 O2          3.8100  -53.7280   30.0440 O.3    301  EDO301      0.0000
      5 H           3.3175  -56.2356   29.3999 H      301  EDO301      0.0000
      6 H           3.4908  -56.9402   31.0287 H      301  EDO301      0.0000
      7 H           1.5508  -54.9993   30.3116 H      301  EDO301      0.0000
      8 H           5.0870  -55.1135   30.9166 H      301  EDO301      0.0000
      9 H           3.7540  -54.5452   31.9651 H      301  EDO301      0.0000
     10 H           4.3506  -53.0090   30.3433 H      301  EDO301      0.0000
@<TRIPOS>BOND
     1     1     2    1
     2     1     3    1
     3     1     5    1
     4     1     6    1
     5     2     7    1
     6     3     4    1
     7     3     8    1
     8     3     9    1
     9     4    10    1

