@<TRIPOS>MOLECULE
EDO_1_A_605
 10 9 0 0 0
SMALL
NO_CHARGES

@<TRIPOS>ATOM
      1 C1        -13.8550  -38.2360   31.9580 C.3    605  EDO605      0.0000
      2 O1        -14.9050  -37.4040   31.4460 O.3    605  EDO605      0.0000
      3 C2        -13.4540  -39.2610   30.8960 C.3    605  EDO605      0.0000
      4 O2        -14.5410  -39.5500   30.0080 O.3    605  EDO605      0.0000
      5 H         -14.2364  -38.7571   32.8608 H      605  EDO605      0.0000
      6 H         -12.9881  -37.6215   32.2787 H      605  EDO605      0.0000
      7 H         -14.5167  -36.7672   30.8600 H      605  EDO605      0.0000
      8 H         -13.1000  -40.2007   31.3676 H      605  EDO605      0.0000
      9 H         -12.6109  -38.8665   30.2911 H      605  EDO605      0.0000
     10 H         -15.3060  -39.0823   30.3211 H      605  EDO605      0.0000
@<TRIPOS>BOND
     1     1     2    1
     2     1     3    1
     3     1     5    1
     4     1     6    1
     5     2     7    1
     6     3     4    1
     7     3     8    1
     8     3     9    1
     9     4    10    1

