EDO_1_A_603
  -ISIS-            3D

 10  9  0  0  0  0  0  0  0  0  1 V2000
    5.3270  -15.9360   21.5970 C   0  0  0  0  0
    4.3440  -15.2800   22.4080 O   0  0  0  0  0
    6.5160  -15.0100   21.4310 C   0  0  0  0  0
    7.1570  -14.8900   22.7050 O   0  0  0  0  0
    4.8759  -16.1677   20.6101 H   0  0  0  0  0
    5.6206  -16.9007   22.0607 H   0  0  0  0  0
    4.8002  -14.9568   23.1764 H   0  0  0  0  0
    6.1968  -14.0067   21.0811 H   0  0  0  0  0
    7.2293  -15.4106   20.6799 H   0  0  0  0  0
    7.8580  -15.5265   22.7532 H   0  0  0  0  0
  1  2  1  0  0  0
  1  3  1  0  0  0
  1  5  1  0  0  0
  1  6  1  0  0  0
  2  7  1  0  0  0
  3  4  1  0  0  0
  3  8  1  0  0  0
  3  9  1  0  0  0
  4 10  1  0  0  0
M  END
$$$$
