AG7_1_A_401
  -ISIS-            3D

 84 86  0  0  0  0  0  0  0  0  1 V2000
   32.3670   -6.1420    0.9250 C   0  0  0  0  0
   33.3190   -7.3570    0.8470 C   0  0  0  0  0
   31.1950   -6.2940    0.7740 O   0  0  0  0  0
   32.4800   -8.6350    0.9560 C   0  0  0  0  0
   33.3440   -9.8490    0.6360 C   0  0  0  0  0
   32.5100  -11.1400    0.9380 C   0  0  0  0  0
   32.9980  -12.1410    1.9910 C   0  0  0  0  0
   32.1750  -13.4060    2.2860 C   0  0  0  0  0
   30.8620  -13.6540    1.5320 C   0  0  0  0  0
   30.3780  -12.6620    0.4720 C   0  0  0  0  0
   31.2030  -11.3970    0.1770 C   0  0  0  0  0
   30.4680   -8.9040    2.6550 N   0  0  0  0  0
   29.9890   -8.9710    4.0580 C   0  0  0  0  0
   28.8440   -8.0080    4.2830 C   0  0  0  0  0
   29.3670   -6.6550    4.5030 C   0  0  0  0  0
   28.1660   -5.6910    4.9460 C   0  0  0  0  0
   28.6900   -4.8700    5.8830 N   0  0  0  0  0
   27.0520   -5.7230    4.5330 O   0  0  0  0  0
   29.5790  -10.4180    4.3660 C   0  0  0  0  0
   30.8740  -11.2270    4.6390 C   0  0  0  0  0
   30.6680  -12.4150    5.6050 C   0  0  0  0  0
   31.7050  -13.3830    5.7140 O   0  0  0  0  0
   29.6700  -12.5150    6.2370 O   0  0  0  0  0
   31.9200   -8.7170    2.3970 C   0  0  0  0  0
   32.6620   -8.6220    3.3180 O   0  0  0  0  0
   32.3090  -13.4410    7.0000 C   0  0  0  0  0
   33.6780  -14.1420    6.9060 C   0  0  0  0  0
   32.8830   -4.7190    1.2120 C   0  0  0  0  0
   32.3020   -3.8890    0.1760 N   0  0  0  0  0
   32.7660   -4.0610   -1.2060 C   0  0  0  0  0
   33.6000   -4.8690   -1.4420 O   0  0  0  0  0
   32.3960   -4.3620    2.6060 C   0  0  0  0  0
   32.4470   -2.8620    2.8370 C   0  0  0  0  0
   30.1350  -14.7810    1.7920 F   0  0  0  0  0
   33.2790   -5.0740    3.6520 C   0  0  0  0  0
   30.2140   -5.2500    6.0820 C   0  0  0  0  0
   30.3220   -6.5590    5.6800 C   0  0  0  0  0
   32.1620   -3.2220   -2.3620 C   0  0  0  0  0
   32.6130   -2.0190   -2.8670 C   0  0  0  0  0
   31.7780   -1.6500   -3.8870 C   0  0  0  0  0
   30.8360   -2.6020   -4.0160 O   0  0  0  0  0
   31.0820   -3.5820   -3.0630 N   0  0  0  0  0
   31.8800   -0.3800   -4.7520 C   0  0  0  0  0
   34.0949   -7.3062    1.6421 H   0  0  0  0  0
   33.8514   -7.3305   -0.1306 H   0  0  0  0  0
   31.6348   -8.5975    0.2302 H   0  0  0  0  0
   34.2730   -9.8491    1.2489 H   0  0  0  0  0
   33.6495   -9.8497   -0.4346 H   0  0  0  0  0
   33.9367  -11.9591    2.5388 H   0  0  0  0  0
   32.5237  -14.1295    3.0361 H   0  0  0  0  0
   29.4439  -12.8525   -0.0748 H   0  0  0  0  0
   30.8498  -10.6858   -0.5870 H   0  0  0  0  0
   29.8207   -8.9830    1.8595 H   0  0  0  0  0
   30.8038   -8.7139    4.7669 H   0  0  0  0  0
   28.2581   -8.3199    5.1784 H   0  0  0  0  0
   28.1378   -8.0356    3.4220 H   0  0  0  0  0
   29.8327   -6.2436    3.5773 H   0  0  0  0  0
   28.1645   -4.1322    6.3675 H   0  0  0  0  0
   28.9836  -10.8669    3.5394 H   0  0  0  0  0
   28.9395  -10.4275    5.2772 H   0  0  0  0  0
   31.6598  -10.5852    5.0936 H   0  0  0  0  0
   31.2848  -11.5885    3.6789 H   0  0  0  0  0
   31.6592  -14.0003    7.7061 H   0  0  0  0  0
   32.4527  -12.4224    7.4201 H   0  0  0  0  0
   34.1717  -14.2028    7.9003 H   0  0  0  0  0
   34.3672  -13.5969    6.2248 H   0  0  0  0  0
   33.5777  -15.1798    6.5200 H   0  0  0  0  0
   33.9957   -4.6884    1.1650 H   0  0  0  0  0
   31.5523   -3.2132    0.3640 H   0  0  0  0  0
   31.3377   -4.6884    2.7427 H   0  0  0  0  0
   32.2161   -2.6071    3.8957 H   0  0  0  0  0
   31.7090   -2.3023    2.2228 H   0  0  0  0  0
   33.4534   -2.4409    2.6157 H   0  0  0  0  0
   33.0047   -4.7844    4.6897 H   0  0  0  0  0
   34.3567   -4.8273    3.5254 H   0  0  0  0  0
   33.1836   -6.1782    3.5956 H   0  0  0  0  0
   30.5282   -5.1097    7.1415 H   0  0  0  0  0
   30.8469   -4.5708    5.4670 H   0  0  0  0  0
   31.3703   -6.8237    5.4163 H   0  0  0  0  0
   29.9934   -7.2427    6.4982 H   0  0  0  0  0
   33.4871   -1.4610   -2.5116 H   0  0  0  0  0
   31.0601   -0.3409   -5.5026 H   0  0  0  0  0
   32.8477   -0.3514   -5.2997 H   0  0  0  0  0
   31.8117    0.5341   -4.1218 H   0  0  0  0  0
  1  2  1  0  0  0
  1  3  2  0  0  0
  1 28  1  0  0  0
  2  4  1  0  0  0
  2 44  1  0  0  0
  2 45  1  0  0  0
  4  5  1  0  0  0
  4 24  1  0  0  0
  4 46  1  0  0  0
  5  6  1  0  0  0
  5 47  1  0  0  0
  5 48  1  0  0  0
  6  7  1  0  0  0
  6 11  1  0  0  0
  7  8  1  0  0  0
  7 49  1  0  0  0
  8  9  1  0  0  0
  8 50  1  0  0  0
  9 10  1  0  0  0
  9 34  1  0  0  0
 10 11  1  0  0  0
 10 51  1  0  0  0
 11 52  1  0  0  0
 12 13  1  0  0  0
 12 24  1  0  0  0
 12 53  1  0  0  0
 13 14  1  0  0  0
 13 19  1  0  0  0
 13 54  1  0  0  0
 14 15  1  0  0  0
 14 55  1  0  0  0
 14 56  1  0  0  0
 15 16  1  0  0  0
 15 37  1  0  0  0
 15 57  1  0  0  0
 16 17  1  0  0  0
 16 18  2  0  0  0
 17 36  1  0  0  0
 17 58  1  0  0  0
 19 20  1  0  0  0
 19 59  1  0  0  0
 19 60  1  0  0  0
 20 21  1  0  0  0
 20 61  1  0  0  0
 20 62  1  0  0  0
 21 22  1  0  0  0
 21 23  2  0  0  0
 22 26  1  0  0  0
 24 25  2  0  0  0
 26 27  1  0  0  0
 26 63  1  0  0  0
 26 64  1  0  0  0
 27 65  1  0  0  0
 27 66  1  0  0  0
 27 67  1  0  0  0
 28 29  1  0  0  0
 28 32  1  0  0  0
 28 68  1  0  0  0
 29 30  1  0  0  0
 29 69  1  0  0  0
 30 31  2  0  0  0
 30 38  1  0  0  0
 32 33  1  0  0  0
 32 35  1  0  0  0
 32 70  1  0  0  0
 33 71  1  0  0  0
 33 72  1  0  0  0
 33 73  1  0  0  0
 35 74  1  0  0  0
 35 75  1  0  0  0
 35 76  1  0  0  0
 36 37  1  0  0  0
 36 77  1  0  0  0
 36 78  1  0  0  0
 37 79  1  0  0  0
 37 80  1  0  0  0
 38 39  1  0  0  0
 38 42  2  0  0  0
 39 40  2  0  0  0
 39 81  1  0  0  0
 40 41  1  0  0  0
 40 43  1  0  0  0
 41 42  1  0  0  0
 43 82  1  0  0  0
 43 83  1  0  0  0
 43 84  1  0  0  0
M  END
$$$$
