@<TRIPOS>MOLECULE
AG7_1_A_401
 84 86 0 0 0
SMALL
NO_CHARGES

@<TRIPOS>ATOM
      1 C01        32.3670   -6.1420    0.9250 C.2    401  AG7401      0.0000
      2 C02        33.3190   -7.3570    0.8470 C.3    401  AG7401      0.0000
      3 O03        31.1950   -6.2940    0.7740 O.2    401  AG7401      0.0000
      4 C04        32.4800   -8.6350    0.9560 C.3    401  AG7401      0.0000
      5 C05        33.3440   -9.8490    0.6360 C.3    401  AG7401      0.0000
      6 C06        32.5100  -11.1400    0.9380 C.ar   401  AG7401      0.0000
      7 C07        32.9980  -12.1410    1.9910 C.ar   401  AG7401      0.0000
      8 C08        32.1750  -13.4060    2.2860 C.ar   401  AG7401      0.0000
      9 C09        30.8620  -13.6540    1.5320 C.ar   401  AG7401      0.0000
     10 C10        30.3780  -12.6620    0.4720 C.ar   401  AG7401      0.0000
     11 C11        31.2030  -11.3970    0.1770 C.ar   401  AG7401      0.0000
     12 N12        30.4680   -8.9040    2.6550 N.am   401  AG7401      0.0000
     13 C13        29.9890   -8.9710    4.0580 C.3    401  AG7401      0.0000
     14 C14        28.8440   -8.0080    4.2830 C.3    401  AG7401      0.0000
     15 C15        29.3670   -6.6550    4.5030 C.3    401  AG7401      0.0000
     16 C16        28.1660   -5.6910    4.9460 C.2    401  AG7401      0.0000
     17 N17        28.6900   -4.8700    5.8830 N.am   401  AG7401      0.0000
     18 O18        27.0520   -5.7230    4.5330 O.2    401  AG7401      0.0000
     19 C19        29.5790  -10.4180    4.3660 C.3    401  AG7401      0.0000
     20 C20        30.8740  -11.2270    4.6390 C.3    401  AG7401      0.0000
     21 C21        30.6680  -12.4150    5.6050 C.2    401  AG7401      0.0000
     22 O22        31.7050  -13.3830    5.7140 O.3    401  AG7401      0.0000
     23 O23        29.6700  -12.5150    6.2370 O.2    401  AG7401      0.0000
     24 C47        31.9200   -8.7170    2.3970 C.2    401  AG7401      0.0000
     25 O48        32.6620   -8.6220    3.3180 O.2    401  AG7401      0.0000
     26 C50        32.3090  -13.4410    7.0000 C.3    401  AG7401      0.0000
     27 C53        33.6780  -14.1420    6.9060 C.3    401  AG7401      0.0000
     28 C57        32.8830   -4.7190    1.2120 C.3    401  AG7401      0.0000
     29 N58        32.3020   -3.8890    0.1760 N.am   401  AG7401      0.0000
     30 C59        32.7660   -4.0610   -1.2060 C.2    401  AG7401      0.0000
     31 O60        33.6000   -4.8690   -1.4420 O.2    401  AG7401      0.0000
     32 C78        32.3960   -4.3620    2.6060 C.3    401  AG7401      0.0000
     33 C81        32.4470   -2.8620    2.8370 C.3    401  AG7401      0.0000
     34 F1         30.1350  -14.7810    1.7920 F      401  AG7401      0.0000
     35 C82        33.2790   -5.0740    3.6520 C.3    401  AG7401      0.0000
     36 C83        30.2140   -5.2500    6.0820 C.3    401  AG7401      0.0000
     37 C84        30.3220   -6.5590    5.6800 C.3    401  AG7401      0.0000
     38 C1         32.1620   -3.2220   -2.3620 C.ar   401  AG7401      0.0000
     39 C2         32.6130   -2.0190   -2.8670 C.ar   401  AG7401      0.0000
     40 C3         31.7780   -1.6500   -3.8870 C.ar   401  AG7401      0.0000
     41 O4         30.8360   -2.6020   -4.0160 O.3    401  AG7401      0.0000
     42 N5         31.0820   -3.5820   -3.0630 N.ar   401  AG7401      0.0000
     43 C4         31.8800   -0.3800   -4.7520 C.3    401  AG7401      0.0000
     44 H          34.0949   -7.3062    1.6421 H      401  AG7401      0.0000
     45 H          33.8514   -7.3305   -0.1306 H      401  AG7401      0.0000
     46 H          31.6348   -8.5975    0.2302 H      401  AG7401      0.0000
     47 H          34.2730   -9.8491    1.2489 H      401  AG7401      0.0000
     48 H          33.6495   -9.8497   -0.4346 H      401  AG7401      0.0000
     49 H          33.9367  -11.9591    2.5388 H      401  AG7401      0.0000
     50 H          32.5237  -14.1295    3.0361 H      401  AG7401      0.0000
     51 H          29.4439  -12.8525   -0.0748 H      401  AG7401      0.0000
     52 H          30.8498  -10.6858   -0.5870 H      401  AG7401      0.0000
     53 H          29.8207   -8.9830    1.8595 H      401  AG7401      0.0000
     54 H          30.8038   -8.7139    4.7669 H      401  AG7401      0.0000
     55 H          28.2581   -8.3199    5.1784 H      401  AG7401      0.0000
     56 H          28.1378   -8.0356    3.4220 H      401  AG7401      0.0000
     57 H          29.8327   -6.2436    3.5773 H      401  AG7401      0.0000
     58 H          28.1645   -4.1322    6.3675 H      401  AG7401      0.0000
     59 H          28.9836  -10.8669    3.5394 H      401  AG7401      0.0000
     60 H          28.9395  -10.4275    5.2772 H      401  AG7401      0.0000
     61 H          31.6598  -10.5852    5.0936 H      401  AG7401      0.0000
     62 H          31.2848  -11.5885    3.6789 H      401  AG7401      0.0000
     63 H          31.6592  -14.0003    7.7061 H      401  AG7401      0.0000
     64 H          32.4527  -12.4224    7.4201 H      401  AG7401      0.0000
     65 H          34.1717  -14.2028    7.9003 H      401  AG7401      0.0000
     66 H          34.3672  -13.5969    6.2248 H      401  AG7401      0.0000
     67 H          33.5777  -15.1798    6.5200 H      401  AG7401      0.0000
     68 H          33.9957   -4.6884    1.1650 H      401  AG7401      0.0000
     69 H          31.5523   -3.2132    0.3640 H      401  AG7401      0.0000
     70 H          31.3377   -4.6884    2.7427 H      401  AG7401      0.0000
     71 H          32.2161   -2.6071    3.8957 H      401  AG7401      0.0000
     72 H          31.7090   -2.3023    2.2228 H      401  AG7401      0.0000
     73 H          33.4534   -2.4409    2.6157 H      401  AG7401      0.0000
     74 H          33.0047   -4.7844    4.6897 H      401  AG7401      0.0000
     75 H          34.3567   -4.8273    3.5254 H      401  AG7401      0.0000
     76 H          33.1836   -6.1782    3.5956 H      401  AG7401      0.0000
     77 H          30.5282   -5.1097    7.1415 H      401  AG7401      0.0000
     78 H          30.8469   -4.5708    5.4670 H      401  AG7401      0.0000
     79 H          31.3703   -6.8237    5.4163 H      401  AG7401      0.0000
     80 H          29.9934   -7.2427    6.4982 H      401  AG7401      0.0000
     81 H          33.4871   -1.4610   -2.5116 H      401  AG7401      0.0000
     82 H          31.0601   -0.3409   -5.5026 H      401  AG7401      0.0000
     83 H          32.8477   -0.3514   -5.2997 H      401  AG7401      0.0000
     84 H          31.8117    0.5341   -4.1218 H      401  AG7401      0.0000
@<TRIPOS>BOND
     1     1     2    1
     2     1     3    2
     3     1    28    1
     4     2     4    1
     5     2    44    1
     6     2    45    1
     7     4     5    1
     8     4    24    1
     9     4    46    1
    10     5     6    1
    11     5    47    1
    12     5    48    1
    13     6     7   ar
    14     6    11   ar
    15     7     8   ar
    16     7    49    1
    17     8     9   ar
    18     8    50    1
    19     9    10   ar
    20     9    34    1
    21    10    11   ar
    22    10    51    1
    23    11    52    1
    24    12    13    1
    25    12    24    1
    26    12    53    1
    27    13    14    1
    28    13    19    1
    29    13    54    1
    30    14    15    1
    31    14    55    1
    32    14    56    1
    33    15    16    1
    34    15    37    1
    35    15    57    1
    36    16    17    1
    37    16    18    2
    38    17    36    1
    39    17    58    1
    40    19    20    1
    41    19    59    1
    42    19    60    1
    43    20    21    1
    44    20    61    1
    45    20    62    1
    46    21    22    1
    47    21    23    2
    48    22    26    1
    49    24    25    2
    50    26    27    1
    51    26    63    1
    52    26    64    1
    53    27    65    1
    54    27    66    1
    55    27    67    1
    56    28    29    1
    57    28    32    1
    58    28    68    1
    59    29    30    1
    60    29    69    1
    61    30    31    2
    62    30    38    1
    63    32    33    1
    64    32    35    1
    65    32    70    1
    66    33    71    1
    67    33    72    1
    68    33    73    1
    69    35    74    1
    70    35    75    1
    71    35    76    1
    72    36    37    1
    73    36    77    1
    74    36    78    1
    75    37    79    1
    76    37    80    1
    77    38    39   ar
    78    38    42   ar
    79    39    40   ar
    80    39    81    1
    81    40    41   ar
    82    40    43    1
    83    41    42   ar
    84    43    82    1
    85    43    83    1
    86    43    84    1

