@<TRIPOS>MOLECULE
DMS_1_A_505
 10 9 0 0 0
SMALL
NO_CHARGES

@<TRIPOS>ATOM
      1 S          20.6560   27.7660    4.1060 S.o    505  DMS505      0.0000
      2 O          20.9700   27.6650    2.6890 O.2    505  DMS505      0.0000
      3 C1         20.6940   26.1440    4.8240 C.3    505  DMS505      0.0000
      4 C2         18.9900   28.1480    4.3420 C.3    505  DMS505      0.0000
      5 H          20.4096   26.1989    5.8947 H      505  DMS505      0.0000
      6 H          21.7210   25.7321    4.7467 H      505  DMS505      0.0000
      7 H          19.9931   25.4707    4.2891 H      505  DMS505      0.0000
      8 H          18.7511   28.1571    5.4251 H      505  DMS505      0.0000
      9 H          18.3448   27.4043    3.8309 H      505  DMS505      0.0000
     10 H          18.7772   29.1531    3.9239 H      505  DMS505      0.0000
@<TRIPOS>BOND
     1     1     2    2
     2     1     3    1
     3     1     4    1
     4     3     5    1
     5     3     6    1
     6     3     7    1
     7     4     8    1
     8     4     9    1
     9     4    10    1

