@<TRIPOS>MOLECULE
DMS_1_A_504
 10 9 0 0 0
SMALL
NO_CHARGES

@<TRIPOS>ATOM
      1 S          11.9110   20.2040   15.1820 S.o    504  DMS504      0.0000
      2 O          10.6710   19.9110   15.9500 O.2    504  DMS504      0.0000
      3 C1         11.9330   21.9880   15.0470 C.3    504  DMS504      0.0000
      4 C2         11.5490   19.8590   13.4880 C.3    504  DMS504      0.0000
      5 H          12.7449   22.3026   14.3598 H      504  DMS504      0.0000
      6 H          12.1203   22.4283   16.0478 H      504  DMS504      0.0000
      7 H          10.9598   22.3594   14.6649 H      504  DMS504      0.0000
      8 H          12.3768   20.2200   12.8442 H      504  DMS504      0.0000
      9 H          10.6029   20.3526   13.1842 H      504  DMS504      0.0000
     10 H          11.4427   18.7634   13.3513 H      504  DMS504      0.0000
@<TRIPOS>BOND
     1     1     2    2
     2     1     3    1
     3     1     4    1
     4     3     5    1
     5     3     6    1
     6     3     7    1
     7     4     8    1
     8     4     9    1
     9     4    10    1

