@<TRIPOS>MOLECULE
EDO_1_A_307
 10 9 0 0 0
SMALL
NO_CHARGES

@<TRIPOS>ATOM
      1 C1        -90.0030   80.8570   -6.9340 C.3    307  EDO307      0.0000
      2 O1        -88.8820   81.6910   -7.1890 O.3    307  EDO307      0.0000
      3 C2        -90.7260   81.1410   -5.6630 C.3    307  EDO307      0.0000
      4 O2        -91.4180   82.3810   -5.6530 O.3    307  EDO307      0.0000
      5 H         -89.6482   79.8037   -6.9249 H      307  EDO307      0.0000
      6 H         -90.6978   80.9319   -7.7964 H      307  EDO307      0.0000
      7 H         -88.3955   81.8048   -6.3838 H      307  EDO307      0.0000
      8 H         -90.0212   81.1250   -4.8058 H      307  EDO307      0.0000
      9 H         -91.4613   80.3314   -5.4645 H      307  EDO307      0.0000
     10 H         -92.0166   82.4028   -6.3874 H      307  EDO307      0.0000
@<TRIPOS>BOND
     1     1     2    1
     2     1     3    1
     3     1     5    1
     4     1     6    1
     5     2     7    1
     6     3     4    1
     7     3     8    1
     8     3     9    1
     9     4    10    1

