EDO_1_A_307
  -ISIS-            3D

 10  9  0  0  0  0  0  0  0  0  1 V2000
  -90.0030   80.8570   -6.9340 C   0  0  0  0  0
  -88.8820   81.6910   -7.1890 O   0  0  0  0  0
  -90.7260   81.1410   -5.6630 C   0  0  0  0  0
  -91.4180   82.3810   -5.6530 O   0  0  0  0  0
  -89.6482   79.8037   -6.9249 H   0  0  0  0  0
  -90.6978   80.9319   -7.7964 H   0  0  0  0  0
  -88.3955   81.8048   -6.3838 H   0  0  0  0  0
  -90.0212   81.1250   -4.8058 H   0  0  0  0  0
  -91.4613   80.3314   -5.4645 H   0  0  0  0  0
  -92.0166   82.4028   -6.3874 H   0  0  0  0  0
  1  2  1  0  0  0
  1  3  1  0  0  0
  1  5  1  0  0  0
  1  6  1  0  0  0
  2  7  1  0  0  0
  3  4  1  0  0  0
  3  8  1  0  0  0
  3  9  1  0  0  0
  4 10  1  0  0  0
M  END
$$$$
