@<TRIPOS>MOLECULE
DMS_2_A_501
 10 9 0 0 0
SMALL
NO_CHARGES

@<TRIPOS>ATOM
      1 S          -6.0320    0.2840  -18.2650 S.o    501  DMS501      0.0000
      2 O          -7.1400    0.8960  -17.4740 O.2    501  DMS501      0.0000
      3 C1         -6.7350   -0.5050  -19.7370 C.3    501  DMS501      0.0000
      4 C2         -5.0530    1.6010  -19.0440 C.3    501  DMS501      0.0000
      5 H          -5.9166   -0.9006  -20.3726 H      501  DMS501      0.0000
      6 H          -7.3297    0.2335  -20.3127 H      501  DMS501      0.0000
      7 H          -7.3920   -1.3424  -19.4247 H      501  DMS501      0.0000
      8 H          -4.2771    1.1500  -19.6958 H      501  DMS501      0.0000
      9 H          -4.5612    2.2059  -18.2550 H      501  DMS501      0.0000
     10 H          -5.7148    2.2540  -19.6492 H      501  DMS501      0.0000
@<TRIPOS>BOND
     1     1     2    2
     2     1     3    1
     3     1     4    1
     4     3     5    1
     5     3     6    1
     6     3     7    1
     7     4     8    1
     8     4     9    1
     9     4    10    1

