DMS_2_A_1003
  -ISIS-            3D

 10  9  0  0  0  0  0  0  0  0  1 V2000
   -6.2140   -1.0610    6.3580 S   0  0  0  0  0
   -7.1520   -0.7010    7.4180 O   0  0  0  0  0
   -7.2540   -1.0100    4.9230 C   0  0  0  0  0
   -5.9690   -2.8010    6.4900 C   0  0  0  0  0
   -6.7041   -1.4139    4.0484 H   0  0  0  0  0
   -7.5393    0.0409    4.7110 H   0  0  0  0  0
   -8.1730   -1.6096    5.0868 H   0  0  0  0  0
   -5.4204   -3.1713    5.5999 H   0  0  0  0  0
   -6.9434   -3.3258    6.5654 H   0  0  0  0  0
   -5.3691   -3.0207    7.3968 H   0  0  0  0  0
  1  2  2  0  0  0
  1  3  1  0  0  0
  1  4  1  0  0  0
  3  5  1  0  0  0
  3  6  1  0  0  0
  3  7  1  0  0  0
  4  8  1  0  0  0
  4  9  1  0  0  0
  4 10  1  0  0  0
M  END
$$$$
