@<TRIPOS>MOLECULE
DMS_1_A_1003
 10 9 0 0 0
SMALL
NO_CHARGES

@<TRIPOS>ATOM
      1 S           6.2140   -1.0610   -6.3580 S.o   1003  DMS1003      0.0000
      2 O           7.1520   -0.7010   -7.4180 O.2   1003  DMS1003      0.0000
      3 C1          7.2540   -1.0100   -4.9230 C.3   1003  DMS1003      0.0000
      4 C2          5.9690   -2.8010   -6.4900 C.3   1003  DMS1003      0.0000
      5 H           6.7041   -1.4139   -4.0484 H     1003  DMS1003      0.0000
      6 H           7.5393    0.0409   -4.7110 H     1003  DMS1003      0.0000
      7 H           8.1730   -1.6096   -5.0868 H     1003  DMS1003      0.0000
      8 H           5.4204   -3.1713   -5.5999 H     1003  DMS1003      0.0000
      9 H           6.9434   -3.3258   -6.5654 H     1003  DMS1003      0.0000
     10 H           5.3691   -3.0207   -7.3968 H     1003  DMS1003      0.0000
@<TRIPOS>BOND
     1     1     2    2
     2     1     3    1
     3     1     4    1
     4     3     5    1
     5     3     6    1
     6     3     7    1
     7     4     8    1
     8     4     9    1
     9     4    10    1

