@<TRIPOS>MOLECULE
DMS_1_A_1005
 10 9 0 0 0
SMALL
NO_CHARGES

@<TRIPOS>ATOM
      1 S          21.1150   14.6150    7.8900 S.o   1005  DMS1005      0.0000
      2 O          22.5860   14.6700    7.8150 O.2   1005  DMS1005      0.0000
      3 C1         20.7770   13.1990    8.8720 C.3   1005  DMS1005      0.0000
      4 C2         20.6420   13.8820    6.3680 C.3   1005  DMS1005      0.0000
      5 H          19.6948   12.9586    8.8333 H     1005  DMS1005      0.0000
      6 H          21.0529   13.4101    9.9256 H     1005  DMS1005      0.0000
      7 H          21.3615   12.3242    8.5200 H     1005  DMS1005      0.0000
      8 H          19.5638   13.6220    6.3897 H     1005  DMS1005      0.0000
      9 H          21.2371   12.9676    6.1665 H     1005  DMS1005      0.0000
     10 H          20.8123   14.6055    5.5445 H     1005  DMS1005      0.0000
@<TRIPOS>BOND
     1     1     2    2
     2     1     3    1
     3     1     4    1
     4     3     5    1
     5     3     6    1
     6     3     7    1
     7     4     8    1
     8     4     9    1
     9     4    10    1

