DMS_2_A_1004
  -ISIS-            3D

 10  9  0  0  0  0  0  0  0  0  1 V2000
   -2.3700  -18.7630   -8.1690 S   0  0  0  0  0
   -3.6480  -18.8190   -8.9380 O   0  0  0  0  0
   -1.2120  -18.0490   -9.2900 C   0  0  0  0  0
   -1.7490  -20.4110   -8.3360 C   0  0  0  0  0
   -0.1822  -18.1588   -8.8934 H   0  0  0  0  0
   -1.4329  -16.9673   -9.4029 H   0  0  0  0  0
   -1.2773  -18.5313  -10.2865 H   0  0  0  0  0
   -0.7036  -20.4615   -7.9678 H   0  0  0  0  0
   -1.7839  -20.7416   -9.3939 H   0  0  0  0  0
   -2.3709  -21.0990   -7.7265 H   0  0  0  0  0
  1  2  2  0  0  0
  1  3  1  0  0  0
  1  4  1  0  0  0
  3  5  1  0  0  0
  3  6  1  0  0  0
  3  7  1  0  0  0
  4  8  1  0  0  0
  4  9  1  0  0  0
  4 10  1  0  0  0
M  END
$$$$
