APR_1_A_201
  -ISIS-            3D

 58 61  0  0  0  0  0  0  0  0  1 V2000
   39.1890   74.3590    5.5700 N   0  0  0  0  0
   38.4960   73.3050    5.1120 C   0  0  0  0  0
   38.9430   72.1710    4.5720 N   0  0  0  0  0
   40.2840   72.1640    4.5340 C   0  0  0  0  0
   41.1310   73.1600    4.9590 C   0  0  0  0  0
   40.5440   74.3250    5.4880 C   0  0  0  0  0
   41.2410   75.3580    5.9460 N   0  0  0  0  0
   42.4540   72.7760    4.7690 N   0  0  0  0  0
   42.3750   71.5590    4.2640 C   0  0  0  0  0
   41.0750   71.1600    4.0720 N   0  0  0  0  0
   40.5960   69.8970    3.5960 C   0  0  0  0  0
   41.6090   69.0690    2.8170 C   0  0  0  0  0
   41.6520   69.4270    1.4540 O   0  0  0  0  0
   41.0360   67.6680    3.0210 C   0  0  0  0  0
   39.9550   67.3940    2.1320 O   0  0  0  0  0
   40.2480   69.1250    4.7220 O   0  0  0  0  0
   40.5450   67.7270    4.4770 C   0  0  0  0  0
   41.5100   67.2300    5.5280 C   0  0  0  0  0
   42.8750   67.4740    5.0970 O   0  0  0  0  0
   44.0310   67.6190    6.2000 P   0  0  0  0  0
   45.3610   67.5020    5.5290 O   0  0  0  0  0
   43.7560   68.8060    7.0600 O   0  0  0  0  0
   43.7710   66.3230    7.0730 O   0  0  0  0  0
   44.4030   64.8590    7.1000 P   0  0  0  0  0
   43.7020   64.0960    8.1700 O   0  0  0  0  0
   44.4240   64.2970    5.7070 O   0  0  0  0  0
   45.9010   65.1780    7.5500 O   0  0  0  0  0
   46.2410   65.2760    8.9490 C   0  0  0  0  0
   47.8500   66.9880    8.3750 O   0  0  0  0  0
   47.3960   69.1020    9.1320 O   0  0  0  0  0
   48.1890   68.0130    9.3140 C   0  0  0  0  0
   48.6510   68.0010   11.7520 O   0  0  0  0  0
   47.9010   67.4220   10.7000 C   0  0  0  0  0
   49.5820   65.6360   10.5650 O   0  0  0  0  0
   48.1980   65.9460   10.4970 C   0  0  0  0  0
   47.6820   65.7200    9.0710 C   0  0  0  0  0
   37.3986   73.3899    5.1934 H   0  0  0  0  0
   43.2270   70.9181    4.0102 H   0  0  0  0  0
   39.6903   70.0531    2.9704 H   0  0  0  0  0
   42.6186   69.1209    3.2692 H   0  0  0  0  0
   42.5245   69.2667    1.1204 H   0  0  0  0  0
   41.8160   66.8906    2.8848 H   0  0  0  0  0
   40.1529   67.8294    1.3107 H   0  0  0  0  0
   39.6010   67.1482    4.5719 H   0  0  0  0  0
   41.3776   66.1357    5.6653 H   0  0  0  0  0
   41.2971   67.7111    6.5053 H   0  0  0  0  0
   46.1047   64.2897    9.4402 H   0  0  0  0  0
   45.5688   66.0024    9.4516 H   0  0  0  0  0
   47.5089   69.4177    8.2457 H   0  0  0  0  0
   49.2615   68.2738    9.2148 H   0  0  0  0  0
   48.4036   68.9149   11.8060 H   0  0  0  0  0
   46.8178   67.5294   10.9271 H   0  0  0  0  0
   49.9361   66.1471   11.2838 H   0  0  0  0  0
   47.6451   65.3211   11.2289 H   0  0  0  0  0
   48.3167   64.9546    8.5739 H   0  0  0  0  0
   42.2643   75.2796    5.8740 H   0  0  0  0  0
   40.6906   76.1365    6.3291 H   0  0  0  0  0
   46.1487   67.2019    6.2892 H   0  0  0  0  0
  1  2  2  0  0  0
  1  6  1  0  0  0
  2  3  1  0  0  0
  2 37  1  0  0  0
  3  4  2  0  0  0
  4  5  1  0  0  0
  4 10  1  0  0  0
  5  6  2  0  0  0
  5  8  1  0  0  0
  6  7  1  0  0  0
  7 56  1  0  0  0
  7 57  1  0  0  0
  8  9  2  0  0  0
  9 10  1  0  0  0
  9 38  1  0  0  0
 10 11  1  0  0  0
 11 12  1  0  0  0
 11 16  1  0  0  0
 11 39  1  0  0  0
 12 13  1  0  0  0
 12 14  1  0  0  0
 12 40  1  0  0  0
 13 41  1  0  0  0
 14 15  1  0  0  0
 14 17  1  0  0  0
 14 42  1  0  0  0
 15 43  1  0  0  0
 16 17  1  0  0  0
 17 18  1  0  0  0
 17 44  1  0  0  0
 18 19  1  0  0  0
 18 45  1  0  0  0
 18 46  1  0  0  0
 19 20  1  0  0  0
 20 21  1  0  0  0
 20 22  2  0  0  0
 20 23  1  0  0  0
 23 24  1  0  0  0
 24 25  2  0  0  0
 24 26  2  0  0  0
 24 27  1  0  0  0
 27 28  1  0  0  0
 28 36  1  0  0  0
 28 47  1  0  0  0
 28 48  1  0  0  0
 29 31  1  0  0  0
 29 36  1  0  0  0
 30 31  1  0  0  0
 30 49  1  0  0  0
 31 33  1  0  0  0
 31 50  1  0  0  0
 32 33  1  0  0  0
 32 51  1  0  0  0
 33 35  1  0  0  0
 33 52  1  0  0  0
 34 35  1  0  0  0
 34 53  1  0  0  0
 35 36  1  0  0  0
 35 54  1  0  0  0
 36 55  1  0  0  0
 21 58  1  0  0  0
M  END
$$$$
