@<TRIPOS>MOLECULE
EDO_1_A_207
 10 9 0 0 0
SMALL
NO_CHARGES

@<TRIPOS>ATOM
      1 C1         33.5030   56.6390   20.5640 C.3    207  EDO207      0.0000
      2 O1         34.2630   56.5270   19.3840 O.3    207  EDO207      0.0000
      3 C2         34.1510   57.5090   21.5540 C.3    207  EDO207      0.0000
      4 O2         34.6160   56.8030   22.6710 O.3    207  EDO207      0.0000
      5 H          33.3386   55.6203   20.9719 H      207  EDO207      0.0000
      6 H          32.4936   57.0259   20.3060 H      207  EDO207      0.0000
      7 H          34.1978   57.3367   18.8944 H      207  EDO207      0.0000
      8 H          33.4450   58.2958   21.8972 H      207  EDO207      0.0000
      9 H          35.0074   58.0545   21.1062 H      207  EDO207      0.0000
     10 H          33.8756   56.5258   23.1950 H      207  EDO207      0.0000
@<TRIPOS>BOND
     1     1     2    1
     2     1     3    1
     3     1     5    1
     4     1     6    1
     5     2     7    1
     6     3     4    1
     7     3     8    1
     8     3     9    1
     9     4    10    1

