EDO_1_A_202
  -ISIS-            3D

 10  9  0  0  0  0  0  0  0  0  1 V2000
   20.8350   75.2920    6.4520 C   0  0  0  0  0
   20.9850   74.5680    7.6380 O   0  0  0  0  0
   21.9630   76.1830    6.2240 C   0  0  0  0  0
   23.1680   75.6060    6.6220 O   0  0  0  0  0
   19.8818   75.8621    6.4741 H   0  0  0  0  0
   20.7538   74.5717    5.6088 H   0  0  0  0  0
   20.2416   73.9882    7.7364 H   0  0  0  0  0
   21.8246   77.1242    6.7985 H   0  0  0  0  0
   22.0325   76.4787    5.1567 H   0  0  0  0  0
   23.0034   75.1478    7.4385 H   0  0  0  0  0
  1  2  1  0  0  0
  1  3  1  0  0  0
  1  5  1  0  0  0
  1  6  1  0  0  0
  2  7  1  0  0  0
  3  4  1  0  0  0
  3  8  1  0  0  0
  3  9  1  0  0  0
  4 10  1  0  0  0
M  END
$$$$
