@<TRIPOS>MOLECULE
EDO_1_A_204
 10 9 0 0 0
SMALL
NO_CHARGES

@<TRIPOS>ATOM
      1 C1         40.6080   53.8870    0.7130 C.3    204  EDO204      0.0000
      2 O1         39.8370   53.6640   -0.4440 O.3    204  EDO204      0.0000
      3 C2         41.5790   54.9800    0.5580 C.3    204  EDO204      0.0000
      4 O2         40.9720   56.2010    0.2310 O.3    204  EDO204      0.0000
      5 H          41.1332   52.9429    0.9686 H      204  EDO204      0.0000
      6 H          39.9236   54.0980    1.5622 H      204  EDO204      0.0000
      7 H          39.6048   54.5184   -0.7892 H      204  EDO204      0.0000
      8 H          42.3016   54.7271   -0.2464 H      204  EDO204      0.0000
      9 H          42.1822   55.1007    1.4836 H      204  EDO204      0.0000
     10 H          40.6436   56.6033    1.0245 H      204  EDO204      0.0000
@<TRIPOS>BOND
     1     1     2    1
     2     1     3    1
     3     1     5    1
     4     1     6    1
     5     2     7    1
     6     3     4    1
     7     3     8    1
     8     3     9    1
     9     4    10    1

