@<TRIPOS>MOLECULE
EDO_1_A_203
 10 9 0 0 0
SMALL
NO_CHARGES

@<TRIPOS>ATOM
      1 C1         27.2610   75.7310   -1.3560 C.3    203  EDO203      0.0000
      2 O1         26.7260   75.1940   -0.1700 O.3    203  EDO203      0.0000
      3 C2         28.7360   75.7990   -1.3350 C.3    203  EDO203      0.0000
      4 O2         29.2320   76.5060   -0.2230 O.3    203  EDO203      0.0000
      5 H          26.8429   76.7494   -1.5096 H      203  EDO203      0.0000
      6 H          26.9240   75.1173   -2.2190 H      203  EDO203      0.0000
      7 H          25.7811   75.1782   -0.2445 H      203  EDO203      0.0000
      8 H          29.1138   76.2841   -2.2593 H      203  EDO203      0.0000
      9 H          29.1644   74.7739   -1.3243 H      203  EDO203      0.0000
     10 H          28.7605   76.1799    0.5350 H      203  EDO203      0.0000
@<TRIPOS>BOND
     1     1     2    1
     2     1     3    1
     3     1     5    1
     4     1     6    1
     5     2     7    1
     6     3     4    1
     7     3     8    1
     8     3     9    1
     9     4    10    1

