@<TRIPOS>MOLECULE
EDO_1_A_205
 10 9 0 0 0
SMALL
NO_CHARGES

@<TRIPOS>ATOM
      1 C1         44.7390   64.1310   -2.3170 C.3    205  EDO205      0.0000
      2 O1         43.3470   64.1820   -2.5680 O.3    205  EDO205      0.0000
      3 C2         45.0570   63.4350   -1.0540 C.3    205  EDO205      0.0000
      4 O2         44.1290   62.4150   -0.7410 O.3    205  EDO205      0.0000
      5 H          45.1507   65.1613   -2.3223 H      205  EDO205      0.0000
      6 H          45.2184   63.5998   -3.1671 H      205  EDO205      0.0000
      7 H          42.9767   63.3740   -2.2306 H      205  EDO205      0.0000
      8 H          45.0535   64.1721   -0.2216 H      205  EDO205      0.0000
      9 H          46.0828   63.0104   -1.0924 H      205  EDO205      0.0000
     10 H          44.3777   62.0245    0.0861 H      205  EDO205      0.0000
@<TRIPOS>BOND
     1     1     2    1
     2     1     3    1
     3     1     5    1
     4     1     6    1
     5     2     7    1
     6     3     4    1
     7     3     8    1
     8     3     9    1
     9     4    10    1

