@<TRIPOS>MOLECULE
DMS_2_A_402
 10 9 0 0 0
SMALL
NO_CHARGES

@<TRIPOS>ATOM
      1 S          -6.2860   -1.0030    6.2810 S.o    402  DMS402      0.0000
      2 O          -7.2850   -0.7780    7.3620 O.2    402  DMS402      0.0000
      3 C1         -7.1960   -0.9350    4.7300 C.3    402  DMS402      0.0000
      4 C2         -5.8790   -2.7210    6.2770 C.3    402  DMS402      0.0000
      5 H          -6.5254   -1.2117    3.8908 H      402  DMS402      0.0000
      6 H          -7.5677    0.0976    4.5695 H      402  DMS402      0.0000
      7 H          -8.0585   -1.6317    4.7614 H      402  DMS402      0.0000
      8 H          -5.2364   -2.9536    5.4031 H      402  DMS402      0.0000
      9 H          -6.8009   -3.3358    6.2309 H      402  DMS402      0.0000
     10 H          -5.3250   -2.9698    7.2052 H      402  DMS402      0.0000
@<TRIPOS>BOND
     1     1     2    2
     2     1     3    1
     3     1     4    1
     4     3     5    1
     5     3     6    1
     6     3     7    1
     7     4     8    1
     8     4     9    1
     9     4    10    1

