DMS_1_A_403
  -ISIS-            3D

 10  9  0  0  0  0  0  0  0  0  1 V2000
    2.4340  -19.0380    8.1350 S   0  0  0  0  0
    3.7600  -18.9300    8.9190 O   0  0  0  0  0
    1.1710  -18.3170    9.1690 C   0  0  0  0  0
    1.9420  -20.7270    8.4010 C   0  0  0  0  0
    0.1684  -18.5356    8.7479 H   0  0  0  0  0
    1.3126  -17.2173    9.2023 H   0  0  0  0  0
    1.2368  -18.7194   10.2006 H   0  0  0  0  0
    0.9135  -20.8855    8.0170 H   0  0  0  0  0
    1.9768  -20.9781    9.4810 H   0  0  0  0  0
    2.6337  -21.3992    7.8531 H   0  0  0  0  0
  1  2  2  0  0  0
  1  3  1  0  0  0
  1  4  1  0  0  0
  3  5  1  0  0  0
  3  6  1  0  0  0
  3  7  1  0  0  0
  4  8  1  0  0  0
  4  9  1  0  0  0
  4 10  1  0  0  0
M  END
$$$$
