@<TRIPOS>MOLECULE
DMS_1_A_403
 10 9 0 0 0
SMALL
NO_CHARGES

@<TRIPOS>ATOM
      1 S           2.4340  -19.0380    8.1350 S.o    403  DMS403      0.0000
      2 O           3.7600  -18.9300    8.9190 O.2    403  DMS403      0.0000
      3 C1          1.1710  -18.3170    9.1690 C.3    403  DMS403      0.0000
      4 C2          1.9420  -20.7270    8.4010 C.3    403  DMS403      0.0000
      5 H           0.1684  -18.5356    8.7479 H      403  DMS403      0.0000
      6 H           1.3126  -17.2173    9.2023 H      403  DMS403      0.0000
      7 H           1.2368  -18.7194   10.2006 H      403  DMS403      0.0000
      8 H           0.9135  -20.8855    8.0170 H      403  DMS403      0.0000
      9 H           1.9768  -20.9781    9.4810 H      403  DMS403      0.0000
     10 H           2.6337  -21.3992    7.8531 H      403  DMS403      0.0000
@<TRIPOS>BOND
     1     1     2    2
     2     1     3    1
     3     1     4    1
     4     3     5    1
     5     3     6    1
     6     3     7    1
     7     4     8    1
     8     4     9    1
     9     4    10    1

