@<TRIPOS>MOLECULE
DMS_2_A_401
 10 9 0 0 0
SMALL
NO_CHARGES

@<TRIPOS>ATOM
      1 S          -7.0340  -28.2930  -21.5660 S.o    401  DMS401      0.0000
      2 O          -7.8230  -27.3220  -22.3510 O.2    401  DMS401      0.0000
      3 C1         -5.7500  -28.8560  -22.6620 C.3    401  DMS401      0.0000
      4 C2         -6.0490  -27.3730  -20.4310 C.3    401  DMS401      0.0000
      5 H          -5.0375  -29.4990  -22.1059 H      401  DMS401      0.0000
      6 H          -5.2065  -27.9918  -23.0954 H      401  DMS401      0.0000
      7 H          -6.2020  -29.4487  -23.4834 H      401  DMS401      0.0000
      8 H          -5.3357  -28.0496  -19.9169 H      401  DMS401      0.0000
      9 H          -6.7059  -26.9021  -19.6713 H      401  DMS401      0.0000
     10 H          -5.4857  -26.5792  -20.9626 H      401  DMS401      0.0000
@<TRIPOS>BOND
     1     1     2    2
     2     1     3    1
     3     1     4    1
     4     3     5    1
     5     3     6    1
     6     3     7    1
     7     4     8    1
     8     4     9    1
     9     4    10    1

