SFY_1_A_404
  -ISIS-            3D

 28 29  0  0  0  0  0  0  0  0  1 V2000
   24.4960    2.3670   24.7460 O   0  0  0  0  0
   23.4510    2.9160   25.5040 S   0  0  0  0  0
   22.3330    2.1170   25.8910 O   0  0  0  0  0
   22.8930    4.2680   24.6920 C   0  0  0  0  0
   21.9770    5.1910   25.2480 C   0  0  0  0  0
   21.4340    6.2590   24.5220 C   0  0  0  0  0
   21.8130    6.4750   23.1570 C   0  0  0  0  0
   21.2800    7.5680   22.4640 N   0  0  0  0  0
   22.7470    5.5740   22.5630 C   0  0  0  0  0
   23.2590    4.5140   23.3220 C   0  0  0  0  0
   24.0100    3.4090   27.0110 N   0  0  0  0  0
   24.9860    4.3120   27.2420 C   0  0  0  0  0
   25.7320    4.9300   26.2430 C   0  0  0  0  0
   26.5870    5.9160   26.6700 C   0  0  0  0  0
   26.6870    6.2620   28.0160 C   0  0  0  0  0
   25.9040    5.5920   28.9530 C   0  0  0  0  0
   25.0600    4.6130   28.6080 N   0  0  0  0  0
   21.6539    5.0615   26.2959 H   0  0  0  0  0
   20.7151    6.9389   25.0083 H   0  0  0  0  0
   21.5906    7.6842   21.4910 H   0  0  0  0  0
   20.6216    8.1666   22.9786 H   0  0  0  0  0
   23.0632    5.7117   21.5161 H   0  0  0  0  0
   23.9694    3.8324   22.8225 H   0  0  0  0  0
   23.6167    3.0485   27.8873 H   0  0  0  0  0
   25.6553    4.6774   25.1756 H   0  0  0  0  0
   27.2081    6.4494   25.9302 H   0  0  0  0  0
   27.3786    7.0593   28.3354 H   0  0  0  0  0
   25.9767    5.8592   30.0205 H   0  0  0  0  0
  1  2  2  0  0  0
  2  3  2  0  0  0
  2  4  1  0  0  0
  2 11  1  0  0  0
  4  5  2  0  0  0
  4 10  1  0  0  0
  5  6  1  0  0  0
  5 18  1  0  0  0
  6  7  2  0  0  0
  6 19  1  0  0  0
  7  8  1  0  0  0
  7  9  1  0  0  0
  8 20  1  0  0  0
  8 21  1  0  0  0
  9 10  2  0  0  0
  9 22  1  0  0  0
 10 23  1  0  0  0
 11 12  1  0  0  0
 11 24  1  0  0  0
 12 13  2  0  0  0
 12 17  1  0  0  0
 13 14  1  0  0  0
 13 25  1  0  0  0
 14 15  2  0  0  0
 14 26  1  0  0  0
 15 16  1  0  0  0
 15 27  1  0  0  0
 16 17  2  0  0  0
 16 28  1  0  0  0
M  END
$$$$
