@<TRIPOS>MOLECULE
DMS_1_A_404
 10 9 0 0 0
SMALL
NO_CHARGES

@<TRIPOS>ATOM
      1 S           6.0840    0.2210   18.3140 S.o    404  DMS404      0.0000
      2 O           7.1170    0.8870   17.4590 O.2    404  DMS404      0.0000
      3 C1          4.9890    1.4870   19.0200 C.3    404  DMS404      0.0000
      4 C2          6.8540   -0.4130   19.8300 C.3    404  DMS404      0.0000
      5 H           4.2602    1.0070   19.7046 H      404  DMS404      0.0000
      6 H           4.4409    1.9944   18.2000 H      404  DMS404      0.0000
      7 H           5.5891    2.2342   19.5786 H      404  DMS404      0.0000
      8 H           6.0737   -0.8428   20.4907 H      404  DMS404      0.0000
      9 H           7.3780    0.4097   20.3582 H      404  DMS404      0.0000
     10 H           7.5850   -1.2041   19.5651 H      404  DMS404      0.0000
@<TRIPOS>BOND
     1     1     2    2
     2     1     3    1
     3     1     4    1
     4     3     5    1
     5     3     6    1
     6     3     7    1
     7     4     8    1
     8     4     9    1
     9     4    10    1

