@<TRIPOS>MOLECULE
DMS_2_A_405
 10 9 0 0 0
SMALL
NO_CHARGES

@<TRIPOS>ATOM
      1 S          -2.3750  -18.7890   -8.0310 S.o    405  DMS405      0.0000
      2 O          -2.0780  -20.2250   -7.7290 O.2    405  DMS405      0.0000
      3 C1         -3.9050  -18.7160   -9.0100 C.3    405  DMS405      0.0000
      4 C2         -1.1840  -18.1750   -9.2590 C.3    405  DMS405      0.0000
      5 H          -4.1031  -17.6668   -9.3103 H      405  DMS405      0.0000
      6 H          -4.7505  -19.0859   -8.3946 H      405  DMS405      0.0000
      7 H          -3.8035  -19.3498   -9.9147 H      405  DMS405      0.0000
      8 H          -1.4521  -17.1387   -9.5495 H      405  DMS405      0.0000
      9 H          -1.1969  -18.8287  -10.1552 H      405  DMS405      0.0000
     10 H          -0.1674  -18.1791   -8.8154 H      405  DMS405      0.0000
@<TRIPOS>BOND
     1     1     2    2
     2     1     3    1
     3     1     4    1
     4     3     5    1
     5     3     6    1
     6     3     7    1
     7     4     8    1
     8     4     9    1
     9     4    10    1

