@<TRIPOS>MOLECULE
DMS_1_A_402
 10 9 0 0 0
SMALL
NO_CHARGES

@<TRIPOS>ATOM
      1 S           7.2520  -21.4600   28.8520 S.o    402  DMS402      0.0000
      2 O           8.4100  -21.0870   29.7240 O.2    402  DMS402      0.0000
      3 C1          5.6780  -21.0620   29.6700 C.3    402  DMS402      0.0000
      4 C2          7.0820  -23.2620   28.7880 C.3    402  DMS402      0.0000
      5 H           4.8333  -21.4014   29.0363 H      402  DMS402      0.0000
      6 H           5.6089  -19.9642   29.8129 H      402  DMS402      0.0000
      7 H           5.6294  -21.5643   30.6579 H      402  DMS402      0.0000
      8 H           6.1904  -23.5308   28.1855 H      402  DMS402      0.0000
      9 H           6.9744  -23.6676   29.8149 H      402  DMS402      0.0000
     10 H           7.9859  -23.6975   28.3151 H      402  DMS402      0.0000
@<TRIPOS>BOND
     1     1     2    2
     2     1     3    1
     3     1     4    1
     4     3     5    1
     5     3     6    1
     6     3     7    1
     7     4     8    1
     8     4     9    1
     9     4    10    1

