DMS_1_A_402
  -ISIS-            3D

 10  9  0  0  0  0  0  0  0  0  1 V2000
    7.2520  -21.4600   28.8520 S   0  0  0  0  0
    8.4100  -21.0870   29.7240 O   0  0  0  0  0
    5.6780  -21.0620   29.6700 C   0  0  0  0  0
    7.0820  -23.2620   28.7880 C   0  0  0  0  0
    4.8333  -21.4014   29.0363 H   0  0  0  0  0
    5.6089  -19.9642   29.8129 H   0  0  0  0  0
    5.6294  -21.5643   30.6579 H   0  0  0  0  0
    6.1904  -23.5308   28.1855 H   0  0  0  0  0
    6.9744  -23.6676   29.8149 H   0  0  0  0  0
    7.9859  -23.6975   28.3151 H   0  0  0  0  0
  1  2  2  0  0  0
  1  3  1  0  0  0
  1  4  1  0  0  0
  3  5  1  0  0  0
  3  6  1  0  0  0
  3  7  1  0  0  0
  4  8  1  0  0  0
  4  9  1  0  0  0
  4 10  1  0  0  0
M  END
$$$$
