@<TRIPOS>MOLECULE
DMS_2_A_402
 10 9 0 0 0
SMALL
NO_CHARGES

@<TRIPOS>ATOM
      1 S          -6.1480   -1.0130    6.2980 S.o    402  DMS402      0.0000
      2 O          -7.0950   -0.7170    7.3840 O.2    402  DMS402      0.0000
      3 C1         -7.0220   -0.9070    4.7520 C.3    402  DMS402      0.0000
      4 C2         -5.8840   -2.7640    6.2970 C.3    402  DMS402      0.0000
      5 H          -6.3646   -1.2419    3.9238 H      402  DMS402      0.0000
      6 H          -7.3183    0.1464    4.5707 H      402  DMS402      0.0000
      7 H          -7.9334   -1.5387    4.7801 H      402  DMS402      0.0000
      8 H          -5.2615   -3.0513    5.4251 H      402  DMS402      0.0000
      9 H          -6.8535   -3.3013    6.2518 H      402  DMS402      0.0000
     10 H          -5.3533   -3.0556    7.2263 H      402  DMS402      0.0000
@<TRIPOS>BOND
     1     1     2    2
     2     1     3    1
     3     1     4    1
     4     3     5    1
     5     3     6    1
     6     3     7    1
     7     4     8    1
     8     4     9    1
     9     4    10    1

