ADP_1_A_201
  -ISIS-            3D

 41 43  0  0  0  0  0  0  0  0  1 V2000
    3.8240    3.9730   14.2820 P   0  0  0  0  0
    2.3390    4.2990   14.1160 O   0  0  0  0  0
    4.3840    4.9020   15.2760 O   0  0  0  0  0
    3.9840    2.5380   14.6670 O   0  0  0  0  0
    4.9470    5.3580   11.8880 P   0  0  0  0  0
    4.4880    5.1630   10.5220 O   0  0  0  0  0
    4.4730    6.7230   12.4420 O   0  0  0  0  0
    4.5100    4.1120   12.8080 O   0  0  0  0  0
    6.4560    5.3770   11.8080 O   0  0  0  0  0
    7.3240    4.5440   12.5760 C   0  0  0  0  0
    8.7820    5.1220   12.3780 C   0  0  0  0  0
    9.1830    4.9960   11.1160 O   0  0  0  0  0
    8.7880    6.6290   12.6600 C   0  0  0  0  0
    9.9430    6.9900   13.3060 O   0  0  0  0  0
    8.7140    7.2240   11.2240 C   0  0  0  0  0
    9.1180    8.6640   11.2450 O   0  0  0  0  0
    9.4920    6.4570   10.5040 C   0  0  0  0  0
    9.1630    6.3950    9.1230 N   0  0  0  0  0
    8.0940    6.9090    8.4780 C   0  0  0  0  0
    8.1910    6.6080    7.1590 N   0  0  0  0  0
    9.3310    5.8710    6.9970 C   0  0  0  0  0
    9.8980    5.3060    5.8560 C   0  0  0  0  0
    9.4600    5.3140    4.5130 N   0  0  0  0  0
   11.0560    4.6230    5.9720 N   0  0  0  0  0
   11.6470    4.4800    7.1850 C   0  0  0  0  0
   11.1100    5.0510    8.3130 N   0  0  0  0  0
    9.9220    5.7380    8.1940 C   0  0  0  0  0
    7.2688    3.4922   12.2261 H   0  0  0  0  0
    7.0541    4.5757   13.6524 H   0  0  0  0  0
    9.4757    4.5818   13.0550 H   0  0  0  0  0
    7.9083    6.9506   13.2573 H   0  0  0  0  0
    9.8749    6.7716   14.2258 H   0  0  0  0  0
    7.6535    7.1764   10.9079 H   0  0  0  0  0
    9.7530    8.7526   11.9472 H   0  0  0  0  0
   10.5745    6.6789   10.6142 H   0  0  0  0  0
    7.2359    7.4997    8.8208 H   0  0  0  0  0
   10.0624    4.8194    3.8436 H   0  0  0  0  0
    8.5806    5.8122    4.3249 H   0  0  0  0  0
   12.5918    3.9193    7.2634 H   0  0  0  0  0
    4.7978    4.1459   10.1346 H   0  0  0  0  0
    3.5344    1.8601   13.8805 H   0  0  0  0  0
  1  2  2  0  0  0
  1  3  2  0  0  0
  1  4  1  0  0  0
  1  8  1  0  0  0
  5  6  1  0  0  0
  5  7  2  0  0  0
  5  8  1  0  0  0
  5  9  1  0  0  0
  9 10  1  0  0  0
 10 11  1  0  0  0
 10 28  1  0  0  0
 10 29  1  0  0  0
 11 12  1  0  0  0
 11 13  1  0  0  0
 11 30  1  0  0  0
 12 17  1  0  0  0
 13 14  1  0  0  0
 13 15  1  0  0  0
 13 31  1  0  0  0
 14 32  1  0  0  0
 15 16  1  0  0  0
 15 17  1  0  0  0
 15 33  1  0  0  0
 16 34  1  0  0  0
 17 18  1  0  0  0
 17 35  1  0  0  0
 18 19  1  0  0  0
 18 27  1  0  0  0
 19 20  2  0  0  0
 19 36  1  0  0  0
 20 21  1  0  0  0
 21 22  2  0  0  0
 21 27  1  0  0  0
 22 23  1  0  0  0
 22 24  1  0  0  0
 23 37  1  0  0  0
 23 38  1  0  0  0
 24 25  2  0  0  0
 25 26  1  0  0  0
 25 39  1  0  0  0
 26 27  1  0  0  0
  6 40  1  0  0  0
  4 41  1  0  0  0
M  END
$$$$
