DMS_2_A_403
  -ISIS-            3D

 10  9  0  0  0  0  0  0  0  0  1 V2000
   -2.3900  -19.2140   -8.1060 S   0  0  0  0  0
   -3.5930  -18.7530   -8.8810 O   0  0  0  0  0
   -1.0290  -18.1790   -8.6060 C   0  0  0  0  0
   -1.8720  -20.7220   -8.9020 C   0  0  0  0  0
   -0.0828  -18.5715   -8.1801 H   0  0  0  0  0
   -1.1936  -17.1495   -8.2272 H   0  0  0  0  0
   -0.9531  -18.1499   -9.7121 H   0  0  0  0  0
   -0.9044  -21.0579   -8.4759 H   0  0  0  0  0
   -1.7599  -20.5630   -9.9939 H   0  0  0  0  0
   -2.6335  -21.5091   -8.7269 H   0  0  0  0  0
  1  2  2  0  0  0
  1  3  1  0  0  0
  1  4  1  0  0  0
  3  5  1  0  0  0
  3  6  1  0  0  0
  3  7  1  0  0  0
  4  8  1  0  0  0
  4  9  1  0  0  0
  4 10  1  0  0  0
M  END
$$$$
