@<TRIPOS>MOLECULE
DMS_1_A_401
 10 9 0 0 0
SMALL
NO_CHARGES

@<TRIPOS>ATOM
      1 S           7.1060  -28.1410   21.3100 S.o    401  DMS401      0.0000
      2 O           7.8510  -27.2460   22.2250 O.2    401  DMS401      0.0000
      3 C1          5.9470  -29.0200   22.3010 C.3    401  DMS401      0.0000
      4 C2          5.9980  -27.1250   20.3910 C.3    401  DMS401      0.0000
      5 H           5.2756  -29.6195   21.6529 H      401  DMS401      0.0000
      6 H           5.3409  -28.3141   22.9051 H      401  DMS401      0.0000
      7 H           6.4902  -29.7050   22.9836 H      401  DMS401      0.0000
      8 H           5.3267  -27.7595   19.7771 H      401  DMS401      0.0000
      9 H           6.5786  -26.4622   19.7173 H      401  DMS401      0.0000
     10 H           5.3888  -26.4999   21.0757 H      401  DMS401      0.0000
@<TRIPOS>BOND
     1     1     2    2
     2     1     3    1
     3     1     4    1
     4     3     5    1
     5     3     6    1
     6     3     7    1
     7     4     8    1
     8     4     9    1
     9     4    10    1

