@<TRIPOS>MOLECULE
DMS_2_A_402
 10 9 0 0 0
SMALL
NO_CHARGES

@<TRIPOS>ATOM
      1 S          -6.0400   -1.0900    6.2290 S.o    402  DMS402      0.0000
      2 O          -6.8500   -0.6900    7.4160 O.2    402  DMS402      0.0000
      3 C1         -7.1230   -0.9910    4.8210 C.3    402  DMS402      0.0000
      4 C2         -5.8640   -2.8450    6.2950 C.3    402  DMS402      0.0000
      5 H          -6.6128   -1.3995    3.9248 H      402  DMS402      0.0000
      6 H          -7.3829    0.0709    4.6326 H      402  DMS402      0.0000
      7 H          -8.0542   -1.5632    5.0095 H      402  DMS402      0.0000
      8 H          -5.3816   -3.2108    5.3653 H      402  DMS402      0.0000
      9 H          -6.8549   -3.3293    6.4116 H      402  DMS402      0.0000
     10 H          -5.2255   -3.1180    7.1599 H      402  DMS402      0.0000
@<TRIPOS>BOND
     1     1     2    2
     2     1     3    1
     3     1     4    1
     4     3     5    1
     5     3     6    1
     6     3     7    1
     7     4     8    1
     8     4     9    1
     9     4    10    1

