DMS_1_A_402
  -ISIS-            3D

 10  9  0  0  0  0  0  0  0  0  1 V2000
    6.0400   -1.0900   -6.2290 S   0  0  0  0  0
    6.8500   -0.6900   -7.4160 O   0  0  0  0  0
    7.1230   -0.9910   -4.8210 C   0  0  0  0  0
    5.8640   -2.8450   -6.2950 C   0  0  0  0  0
    6.6128   -1.3995   -3.9248 H   0  0  0  0  0
    7.3829    0.0709   -4.6326 H   0  0  0  0  0
    8.0542   -1.5632   -5.0095 H   0  0  0  0  0
    5.3816   -3.2108   -5.3653 H   0  0  0  0  0
    6.8549   -3.3293   -6.4116 H   0  0  0  0  0
    5.2255   -3.1180   -7.1599 H   0  0  0  0  0
  1  2  2  0  0  0
  1  3  1  0  0  0
  1  4  1  0  0  0
  3  5  1  0  0  0
  3  6  1  0  0  0
  3  7  1  0  0  0
  4  8  1  0  0  0
  4  9  1  0  0  0
  4 10  1  0  0  0
M  END
$$$$
