@<TRIPOS>MOLECULE
ALD_1_B_401
 77 77 0 0 0
SMALL
NO_CHARGES

@<TRIPOS>ATOM
      1 C9         20.2950  -10.1250   -0.1350 C.2    401  ALD401      0.0000
      2 O31        21.1380   -9.5070    0.4930 O.2    401  ALD401      0.0000
      3 O8         19.5090  -11.1390    0.5420 O.3    401  ALD401      0.0000
      4 C7         19.9280  -11.6460    1.8040 C.3    401  ALD401      0.0000
      5 C3         20.8530  -12.8210    1.5640 C.ar   401  ALD401      0.0000
      6 C4         22.2390  -12.6340    1.6120 C.ar   401  ALD401      0.0000
      7 C5         23.0810  -13.7130    1.4070 C.ar   401  ALD401      0.0000
      8 C6         22.5440  -14.9800    1.1560 C.ar   401  ALD401      0.0000
      9 C1         21.1680  -15.1570    1.1240 C.ar   401  ALD401      0.0000
     10 C2         20.3260  -14.0770    1.3260 C.ar   401  ALD401      0.0000
     11 N10        20.0410   -9.9470   -1.4250 N.am   401  ALD401      0.0000
     12 C11        20.5630   -8.8030   -2.1460 C.3    401  ALD401      0.0000
     13 C12        19.7310   -7.5540   -2.1090 C.2    401  ALD401      0.0000
     14 O32        18.5310   -7.5590   -2.4300 O.2    401  ALD401      0.0000
     15 C30        20.6670   -9.2400   -3.6110 C.3    401  ALD401      0.0000
     16 C31        21.3310  -10.6010   -3.7740 C.3    401  ALD401      0.0000
     17 C32        20.8850  -11.2650   -5.0730 C.3    401  ALD401      0.0000
     18 C33        22.8510  -10.4590   -3.7050 C.3    401  ALD401      0.0000
     19 N13        20.3570   -6.4560   -1.7230 N.am   401  ALD401      0.0000
     20 C14        19.7150   -5.1470   -1.8280 C.3    401  ALD401      0.0000
     21 C15        19.5490   -4.6490   -3.2450 C.2    401  ALD401      0.0000
     22 O34        20.5170   -4.3440   -3.8940 O.2    401  ALD401      0.0000
     23 C24        20.5200   -4.1240   -1.0380 C.3    401  ALD401      0.0000
     24 C25        20.6320   -4.5020    0.4310 C.3    401  ALD401      0.0000
     25 C26        19.2890   -4.3060    1.1480 C.3    401  ALD401      0.0000
     26 C27        21.7160   -3.6800    1.1120 C.3    401  ALD401      0.0000
     27 N16        18.2910   -4.5890   -3.7220 N.am   401  ALD401      0.0000
     28 C17        17.9930   -4.0110   -5.0360 C.3    401  ALD401      0.0000
     29 C22        17.6140   -2.5310   -4.8460 C.3    401  ALD401      0.0000
     30 C18        16.8970   -4.7540   -5.7510 C.3    401  ALD401      0.0000
     31 C19        17.1710   -6.2450   -5.9140 C.3    401  ALD401      0.0000
     32 C20        18.5880   -6.5730   -6.3380 C.3    401  ALD401      0.0000
     33 C21        16.1330   -6.8600   -6.8580 C.3    401  ALD401      0.0000
     34 O33        17.4100   -1.9120   -6.1210 O.3    401  ALD401      0.0000
     35 H          19.0424  -11.9811    2.3821 H      401  ALD401      0.0000
     36 H          20.4205  -10.8713    2.4255 H      401  ALD401      0.0000
     37 H          22.6650  -11.6352    1.8084 H      401  ALD401      0.0000
     38 H          24.1752  -13.5745    1.4391 H      401  ALD401      0.0000
     39 H          23.2158  -15.8389    0.9880 H      401  ALD401      0.0000
     40 H          20.7457  -16.1584    0.9339 H      401  ALD401      0.0000
     41 H          19.2333  -14.2272    1.2945 H      401  ALD401      0.0000
     42 H          19.3762  -10.5893   -1.8759 H      401  ALD401      0.0000
     43 H          21.5962   -8.5734   -1.7936 H      401  ALD401      0.0000
     44 H          21.2025   -8.4671   -4.2090 H      401  ALD401      0.0000
     45 H          19.6373   -9.2947   -4.0363 H      401  ALD401      0.0000
     46 H          21.0299  -11.2962   -2.9573 H      401  ALD401      0.0000
     47 H          21.3667  -12.2585   -5.2127 H      401  ALD401      0.0000
     48 H          21.1428  -10.6476   -5.9624 H      401  ALD401      0.0000
     49 H          19.7852  -11.4353   -5.0959 H      401  ALD401      0.0000
     50 H          23.3575  -11.4440   -3.8130 H      401  ALD401      0.0000
     51 H          23.1877  -10.0326   -2.7344 H      401  ALD401      0.0000
     52 H          23.2452   -9.8004   -4.5106 H      401  ALD401      0.0000
     53 H          21.3291   -6.5143   -1.3914 H      401  ALD401      0.0000
     54 H          18.7014   -5.1962   -1.3659 H      401  ALD401      0.0000
     55 H          20.0585   -3.1141   -1.1368 H      401  ALD401      0.0000
     56 H          21.5415   -4.0461   -1.4782 H      401  ALD401      0.0000
     57 H          20.9235   -5.5744    0.5316 H      401  ALD401      0.0000
     58 H          19.3748   -4.5264    2.2359 H      401  ALD401      0.0000
     59 H          18.4943   -4.9784    0.7569 H      401  ALD401      0.0000
     60 H          18.9155   -3.2615    1.0570 H      401  ALD401      0.0000
     61 H          21.8190   -3.9445    2.1882 H      401  ALD401      0.0000
     62 H          21.5038   -2.5886    1.0612 H      401  ALD401      0.0000
     63 H          22.7132   -3.8436    0.6455 H      401  ALD401      0.0000
     64 H          17.5177   -4.9623   -3.1534 H      401  ALD401      0.0000
     65 H          18.9007   -4.0291   -5.6841 H      401  ALD401      0.0000
     66 H          18.4251   -1.9966   -4.3045 H      401  ALD401      0.0000
     67 H          16.6903   -2.4386   -4.2349 H      401  ALD401      0.0000
     68 H          16.7542   -4.3034   -6.7607 H      401  ALD401      0.0000
     69 H          15.9322   -4.6163   -5.2093 H      401  ALD401      0.0000
     70 H          17.0171   -6.7243   -4.9142 H      401  ALD401      0.0000
     71 H          18.7140   -7.6641   -6.5187 H      401  ALD401      0.0000
     72 H          19.3450   -6.3028   -5.5710 H      401  ALD401      0.0000
     73 H          18.8677   -6.0562   -7.2833 H      401  ALD401      0.0000
     74 H          16.2455   -7.9655   -6.9268 H      401  ALD401      0.0000
     75 H          16.2227   -6.4567   -7.8919 H      401  ALD401      0.0000
     76 H          15.0926   -6.6625   -6.5141 H      401  ALD401      0.0000
     77 H          17.2811   -0.9833   -5.9847 H      401  ALD401      0.0000
@<TRIPOS>BOND
     1     1     2    2
     2     1     3    1
     3     1    11    1
     4     3     4    1
     5     4     5    1
     6     4    35    1
     7     4    36    1
     8     5     6   ar
     9     5    10   ar
    10     6     7   ar
    11     6    37    1
    12     7     8   ar
    13     7    38    1
    14     8     9   ar
    15     8    39    1
    16     9    10   ar
    17     9    40    1
    18    10    41    1
    19    11    12    1
    20    11    42    1
    21    12    13    1
    22    12    15    1
    23    12    43    1
    24    13    14    2
    25    13    19    1
    26    15    16    1
    27    15    44    1
    28    15    45    1
    29    16    17    1
    30    16    18    1
    31    16    46    1
    32    17    47    1
    33    17    48    1
    34    17    49    1
    35    18    50    1
    36    18    51    1
    37    18    52    1
    38    19    20    1
    39    19    53    1
    40    20    21    1
    41    20    23    1
    42    20    54    1
    43    21    22    2
    44    21    27    1
    45    23    24    1
    46    23    55    1
    47    23    56    1
    48    24    25    1
    49    24    26    1
    50    24    57    1
    51    25    58    1
    52    25    59    1
    53    25    60    1
    54    26    61    1
    55    26    62    1
    56    26    63    1
    57    27    28    1
    58    27    64    1
    59    28    29    1
    60    28    30    1
    61    28    65    1
    62    29    34    1
    63    29    66    1
    64    29    67    1
    65    30    31    1
    66    30    68    1
    67    30    69    1
    68    31    32    1
    69    31    33    1
    70    31    70    1
    71    32    71    1
    72    32    72    1
    73    32    73    1
    74    33    74    1
    75    33    75    1
    76    33    76    1
    77    34    77    1

