@<TRIPOS>MOLECULE
FHB_1_A_201
 15 15 0 0 0
SMALL
NO_CHARGES

@<TRIPOS>ATOM
      1 C1        -47.3890  -29.2080    4.0100 C.ar   201  FHB201      0.0000
      2 C2        -48.4700  -29.0950    3.2040 C.ar   201  FHB201      0.0000
      3 C3        -49.7300  -28.9980    3.7300 C.ar   201  FHB201      0.0000
      4 F3        -50.7860  -28.8470    2.8970 F      201  FHB201      0.0000
      5 C4        -49.9400  -29.0280    5.0770 C.ar   201  FHB201      0.0000
      6 O4        -51.2620  -28.9510    5.4790 O.3    201  FHB201      0.0000
      7 C5        -48.8410  -29.1350    5.9200 C.ar   201  FHB201      0.0000
      8 C6        -47.5500  -29.2170    5.3720 C.ar   201  FHB201      0.0000
      9 C7        -46.0450  -29.3450    3.2940 C.2    201  FHB201      0.0000
     10 O1        -46.0520  -29.5160    2.0900 O.co2  201  FHB201     -0.5000
     11 O2        -44.9550  -29.4140    3.8850 O.co2  201  FHB201     -0.5000
     12 H         -48.3661  -29.0735    2.1093 H      201  FHB201      0.0000
     13 H         -51.8585  -28.8789    4.7459 H      201  FHB201      0.0000
     14 H         -48.9863  -29.1560    7.0123 H      201  FHB201      0.0000
     15 H         -46.6775  -29.3000    6.0410 H      201  FHB201      0.0000
@<TRIPOS>BOND
     1     1     2   ar
     2     1     8   ar
     3     1     9    1
     4     2     3   ar
     5     2    12    1
     6     3     4    1
     7     3     5   ar
     8     5     6    1
     9     5     7   ar
    10     6    13    1
    11     7     8   ar
    12     7    14    1
    13     8    15    1
    14     9    10   ar
    15     9    11   ar

