DMS_1_A_402
  -ISIS-            3D

 10  9  0  0  0  0  0  0  0  0  1 V2000
    6.0470   -1.1440   -6.2470 S   0  0  0  0  0
    7.0260   -0.8460   -7.3260 O   0  0  0  0  0
    6.9610   -1.1470   -4.7270 C   0  0  0  0  0
    5.7300   -2.8730   -6.3160 C   0  0  0  0  0
    6.3138   -1.4989   -3.8978 H   0  0  0  0  0
    7.3003   -0.1153   -4.5015 H   0  0  0  0  0
    7.8485   -1.8076   -4.8092 H   0  0  0  0  0
    5.1143   -3.1802   -5.4461 H   0  0  0  0  0
    6.6814   -3.4437   -6.3142 H   0  0  0  0  0
    5.1730   -3.1076   -7.2461 H   0  0  0  0  0
  1  2  2  0  0  0
  1  3  1  0  0  0
  1  4  1  0  0  0
  3  5  1  0  0  0
  3  6  1  0  0  0
  3  7  1  0  0  0
  4  8  1  0  0  0
  4  9  1  0  0  0
  4 10  1  0  0  0
M  END
$$$$
