DMS_2_A_403
  -ISIS-            3D

 10  9  0  0  0  0  0  0  0  0  1 V2000
   -2.3250  -19.2190   -8.0830 S   0  0  0  0  0
   -3.6590  -18.8110   -8.6500 O   0  0  0  0  0
   -1.1250  -18.2080   -8.9300 C   0  0  0  0  0
   -1.9500  -20.7670   -8.9150 C   0  0  0  0  0
   -0.1016  -18.5685   -8.7000 H   0  0  0  0  0
   -1.2217  -17.1585   -8.5841 H   0  0  0  0  0
   -1.2927  -18.2447  -10.0260 H   0  0  0  0  0
   -0.9069  -21.0695   -8.6898 H   0  0  0  0  0
   -2.0754  -20.6559  -10.0116 H   0  0  0  0  0
   -2.6398  -21.5546   -8.5486 H   0  0  0  0  0
  1  2  2  0  0  0
  1  3  1  0  0  0
  1  4  1  0  0  0
  3  5  1  0  0  0
  3  6  1  0  0  0
  3  7  1  0  0  0
  4  8  1  0  0  0
  4  9  1  0  0  0
  4 10  1  0  0  0
M  END
$$$$
