@<TRIPOS>MOLECULE
DMS_2_A_401
 10 9 0 0 0
SMALL
NO_CHARGES

@<TRIPOS>ATOM
      1 S          -6.8360  -28.0630  -21.5770 S.o    401  DMS401      0.0000
      2 O          -7.6390  -27.1940  -22.4780 O.2    401  DMS401      0.0000
      3 C1         -5.5550  -28.8040  -22.5750 C.3    401  DMS401      0.0000
      4 C2         -5.7920  -26.9790  -20.6580 C.3    401  DMS401      0.0000
      5 H          -4.8394  -29.3488  -21.9257 H      401  DMS401      0.0000
      6 H          -5.0146  -28.0256  -23.1517 H      401  DMS401      0.0000
      7 H          -6.0147  -29.5235  -23.2833 H      401  DMS401      0.0000
      8 H          -5.0663  -27.5686  -20.0612 H      401  DMS401      0.0000
      9 H          -6.4114  -26.3723  -19.9659 H      401  DMS401      0.0000
     10 H          -5.2424  -26.2974  -21.3389 H      401  DMS401      0.0000
@<TRIPOS>BOND
     1     1     2    2
     2     1     3    1
     3     1     4    1
     4     3     5    1
     5     3     6    1
     6     3     7    1
     7     4     8    1
     8     4     9    1
     9     4    10    1

