IMD_1_A_411
  -ISIS-            3D

  9  9  0  0  0  0  0  0  0  0  1 V2000
   39.5830   34.0390   50.1480 N   0  0  0  0  0
   38.6210   33.6710   49.2730 C   0  0  0  0  0
   38.4020   34.6900   48.4180 N   0  0  0  0  0
   39.2270   35.7060   48.7480 C   0  0  0  0  0
   39.9760   35.2960   49.8390 C   0  0  0  0  0
   39.9521   33.4617   50.9135 H   0  0  0  0  0
   38.0540   32.7351   49.1886 H   0  0  0  0  0
   39.2114   36.6398   48.1741 H   0  0  0  0  0
   40.7481   35.8736   50.3682 H   0  0  0  0  0
  1  2  2  0  0  0
  1  5  1  0  0  0
  1  6  1  0  0  0
  2  3  1  0  0  0
  2  7  1  0  0  0
  3  4  1  0  0  0
  4  5  1  0  0  0
  4  8  1  0  0  0
  5  9  1  0  0  0
M  END
$$$$
