@<TRIPOS>MOLECULE
DMS_2_A_403
 10 9 0 0 0
SMALL
NO_CHARGES

@<TRIPOS>ATOM
      1 S         -35.6780   17.4750   39.8570 S.o    403  DMS403      0.0000
      2 O         -35.7270   17.0020   41.2830 O.2    403  DMS403      0.0000
      3 C1        -37.0720   18.5630   39.4500 C.3    403  DMS403      0.0000
      4 C2        -36.0420   16.1090   38.7170 C.3    403  DMS403      0.0000
      5 H         -37.0174   18.8539   38.3811 H      403  DMS403      0.0000
      6 H         -37.0189   19.4746   40.0796 H      403  DMS403      0.0000
      7 H         -38.0290   18.0374   39.6458 H      403  DMS403      0.0000
      8 H         -36.0275   16.4821   37.6726 H      403  DMS403      0.0000
      9 H         -37.0397   15.6825   38.9474 H      403  DMS403      0.0000
     10 H         -35.2702   15.3209   38.8337 H      403  DMS403      0.0000
@<TRIPOS>BOND
     1     1     2    2
     2     1     3    1
     3     1     4    1
     4     3     5    1
     5     3     6    1
     6     3     7    1
     7     4     8    1
     8     4     9    1
     9     4    10    1

