@<TRIPOS>MOLECULE
DMS_2_A_404
 10 9 0 0 0
SMALL
NO_CHARGES

@<TRIPOS>ATOM
      1 S         -12.3060   14.3360   46.4470 S.o    404  DMS404      0.0000
      2 O         -12.3290   13.1400   47.3560 O.2    404  DMS404      0.0000
      3 C1        -13.1780   13.7790   44.9460 C.3    404  DMS404      0.0000
      4 C2        -13.3620   15.6390   47.1760 C.3    404  DMS404      0.0000
      5 H         -13.2776   14.6311   44.2430 H      404  DMS404      0.0000
      6 H         -14.1854   13.4017   45.2169 H      404  DMS404      0.0000
      7 H         -12.5952   12.9688   44.4620 H      404  DMS404      0.0000
      8 H         -13.4472   16.4836   46.4621 H      404  DMS404      0.0000
      9 H         -12.9015   15.9973   48.1193 H      404  DMS404      0.0000
     10 H         -14.3698   15.2264   47.3874 H      404  DMS404      0.0000
@<TRIPOS>BOND
     1     1     2    2
     2     1     3    1
     3     1     4    1
     4     3     5    1
     5     3     6    1
     6     3     7    1
     7     4     8    1
     8     4     9    1
     9     4    10    1

