@<TRIPOS>MOLECULE
DMS_1_A_402
 10 9 0 0 0
SMALL
NO_CHARGES

@<TRIPOS>ATOM
      1 S         -13.2160    7.8930   73.0710 S.o    402  DMS402      0.0000
      2 O         -14.0380    7.9620   74.3190 O.2    402  DMS402      0.0000
      3 C1        -13.2120    9.4920   72.2190 C.3    402  DMS402      0.0000
      4 C2        -14.0540    6.9650   71.7520 C.3    402  DMS402      0.0000
      5 H         -12.6360    9.4119   71.2746 H      402  DMS402      0.0000
      6 H         -12.7331   10.2501   72.8720 H      402  DMS402      0.0000
      7 H         -14.2525    9.8070   71.9978 H      402  DMS402      0.0000
      8 H         -13.4386    6.9874   70.8295 H      402  DMS402      0.0000
      9 H         -15.0502    7.4096   71.5497 H      402  DMS402      0.0000
     10 H         -14.1838    5.9122   72.0761 H      402  DMS402      0.0000
@<TRIPOS>BOND
     1     1     2    2
     2     1     3    1
     3     1     4    1
     4     3     5    1
     5     3     6    1
     6     3     7    1
     7     4     8    1
     8     4     9    1
     9     4    10    1

