@<TRIPOS>MOLECULE
DMS_1_A_401
 10 9 0 0 0
SMALL
NO_CHARGES

@<TRIPOS>ATOM
      1 S         -16.9130   31.8400   54.3700 S.o    401  DMS401      0.0000
      2 O         -17.2720   33.0410   53.5580 O.2    401  DMS401      0.0000
      3 C1        -15.1340   31.7870   54.6840 C.3    401  DMS401      0.0000
      4 C2        -17.5400   32.0510   56.0530 C.3    401  DMS401      0.0000
      5 H         -14.8975   30.9226   55.3377 H      401  DMS401      0.0000
      6 H         -14.8101   32.7266   55.1770 H      401  DMS401      0.0000
      7 H         -14.5965   31.6736   53.7204 H      401  DMS401      0.0000
      8 H         -17.2376   31.1829   56.6736 H      401  DMS401      0.0000
      9 H         -18.6474   32.1116   56.0255 H      401  DMS401      0.0000
     10 H         -17.1317   32.9838   56.4933 H      401  DMS401      0.0000
@<TRIPOS>BOND
     1     1     2    2
     2     1     3    1
     3     1     4    1
     4     3     5    1
     5     3     6    1
     6     3     7    1
     7     4     8    1
     8     4     9    1
     9     4    10    1

