@<TRIPOS>MOLECULE
DMS_2_A_402
 10 9 0 0 0
SMALL
NO_CHARGES

@<TRIPOS>ATOM
      1 S         -29.9490    7.8930   20.8200 S.o    402  DMS402      0.0000
      2 O         -29.1270    7.9620   19.5720 O.2    402  DMS402      0.0000
      3 C1        -29.9530    9.4920   21.6720 C.3    402  DMS402      0.0000
      4 C2        -29.1110    6.9650   22.1390 C.3    402  DMS402      0.0000
      5 H         -30.5290    9.4119   22.6164 H      402  DMS402      0.0000
      6 H         -30.4319   10.2501   21.0190 H      402  DMS402      0.0000
      7 H         -28.9125    9.8070   21.8932 H      402  DMS402      0.0000
      8 H         -29.7264    6.9874   23.0615 H      402  DMS402      0.0000
      9 H         -28.1148    7.4096   22.3413 H      402  DMS402      0.0000
     10 H         -28.9812    5.9122   21.8149 H      402  DMS402      0.0000
@<TRIPOS>BOND
     1     1     2    2
     2     1     3    1
     3     1     4    1
     4     3     5    1
     5     3     6    1
     6     3     7    1
     7     4     8    1
     8     4     9    1
     9     4    10    1

