DMS_2_A_403
  -ISIS-            3D

 10  9  0  0  0  0  0  0  0  0  1 V2000
  -35.6780   17.4750   39.8570 S   0  0  0  0  0
  -35.7270   17.0020   41.2830 O   0  0  0  0  0
  -37.0720   18.5630   39.4500 C   0  0  0  0  0
  -36.0420   16.1090   38.7170 C   0  0  0  0  0
  -37.0174   18.8539   38.3811 H   0  0  0  0  0
  -37.0189   19.4746   40.0796 H   0  0  0  0  0
  -38.0290   18.0374   39.6458 H   0  0  0  0  0
  -36.0275   16.4821   37.6726 H   0  0  0  0  0
  -37.0397   15.6825   38.9474 H   0  0  0  0  0
  -35.2702   15.3209   38.8337 H   0  0  0  0  0
  1  2  2  0  0  0
  1  3  1  0  0  0
  1  4  1  0  0  0
  3  5  1  0  0  0
  3  6  1  0  0  0
  3  7  1  0  0  0
  4  8  1  0  0  0
  4  9  1  0  0  0
  4 10  1  0  0  0
M  END
$$$$
