@<TRIPOS>MOLECULE
3WL_1_C_401
 30 32 0 0 0
SMALL
NO_CHARGES

@<TRIPOS>ATOM
      1 C4        -42.3490  -17.2910   59.6590 C.ar   401  3WL401      0.0000
      2 C5        -42.6730  -16.3170   60.5850 C.ar   401  3WL401      0.0000
      3 C6        -41.1010  -18.0350   57.6310 C.2    401  3WL401      0.0000
      4 C7        -39.8360  -18.2720   57.2430 C.2    401  3WL401      0.0000
      5 C8        -39.5050  -19.2730   56.2700 C.2    401  3WL401      0.0000
      6 C10       -40.5060  -21.0040   54.7360 C.ar   401  3WL401      0.0000
      7 C13       -43.0610  -20.3150   55.6600 C.ar   401  3WL401      0.0000
      8 O         -38.3260  -19.5000   55.9260 O.2    401  3WL401      0.0000
      9 C9        -40.6410  -19.9900   55.7120 C.ar   401  3WL401      0.0000
     10 C14       -41.9340  -19.6820   56.1410 C.ar   401  3WL401      0.0000
     11 C12       -42.9000  -21.3010   54.7000 C.ar   401  3WL401      0.0000
     12 O2        -43.9760  -21.9530   54.1980 O.3    401  3WL401      0.0000
     13 C11       -41.6200  -21.6450   54.2410 C.ar   401  3WL401      0.0000
     14 O3        -41.4560  -22.6220   53.3010 O.3    401  3WL401      0.0000
     15 O4        -39.2790  -21.3440   54.2850 O.3    401  3WL401      0.0000
     16 O1        -42.1560  -18.7080   57.0900 O.3    401  3WL401      0.0000
     17 C3        -41.4710  -17.0070   58.6140 C.ar   401  3WL401      0.0000
     18 C2        -40.9040  -15.7350   58.5510 C.ar   401  3WL401      0.0000
     19 C1        -41.2400  -14.7690   59.4800 C.ar   401  3WL401      0.0000
     20 C         -42.1210  -15.0610   60.4960 C.ar   401  3WL401      0.0000
     21 H         -42.7927  -18.2970   59.7499 H      401  3WL401      0.0000
     22 H         -43.3771  -16.5506   61.4020 H      401  3WL401      0.0000
     23 H         -39.0001  -17.7047   57.6825 H      401  3WL401      0.0000
     24 H         -44.0666  -20.0483   56.0234 H      401  3WL401      0.0000
     25 H         -43.7878  -22.2811   53.3284 H      401  3WL401      0.0000
     26 H         -41.9911  -23.3767   53.5110 H      401  3WL401      0.0000
     27 H         -38.5504  -20.8665   54.6561 H      401  3WL401      0.0000
     28 H         -40.1898  -15.4839   57.7492 H      401  3WL401      0.0000
     29 H         -40.7964  -13.7610   59.4097 H      401  3WL401      0.0000
     30 H         -42.3838  -14.2880   61.2384 H      401  3WL401      0.0000
@<TRIPOS>BOND
     1     1     2   ar
     2     1    17   ar
     3     1    21    1
     4     2    20   ar
     5     2    22    1
     6     3     4    2
     7     3    16    1
     8     3    17    1
     9     4     5    1
    10     4    23    1
    11     5     8    2
    12     5     9    1
    13     6     9   ar
    14     6    13   ar
    15     6    15    1
    16     7    10   ar
    17     7    11   ar
    18     7    24    1
    19     9    10   ar
    20    10    16    1
    21    11    12    1
    22    11    13   ar
    23    12    25    1
    24    13    14    1
    25    14    26    1
    26    15    27    1
    27    17    18   ar
    28    18    19   ar
    29    18    28    1
    30    19    20   ar
    31    19    29    1
    32    20    30    1

