@<TRIPOS>MOLECULE
EDO_1_C_303
 10 9 0 0 0
SMALL
NO_CHARGES

@<TRIPOS>ATOM
      1 C1          8.2610   -3.4070   54.9130 C.3    303  EDO303      0.0000
      2 O1          7.8670   -3.2930   53.5390 O.3    303  EDO303      0.0000
      3 C2          8.7230   -4.8320   55.2100 C.3    303  EDO303      0.0000
      4 O2          9.9220   -5.1800   54.5120 O.3    303  EDO303      0.0000
      5 H           7.3998   -3.1406   55.5616 H      303  EDO303      0.0000
      6 H           9.0785   -2.6880   55.1325 H      303  EDO303      0.0000
      7 H           7.7658   -2.3728   53.3338 H      303  EDO303      0.0000
      8 H           7.9169   -5.5479   54.9414 H      303  EDO303      0.0000
      9 H           8.9015   -4.9436   56.3008 H      303  EDO303      0.0000
     10 H          10.0540   -6.1155   54.5926 H      303  EDO303      0.0000
@<TRIPOS>BOND
     1     1     2    1
     2     1     3    1
     3     1     5    1
     4     1     6    1
     5     2     7    1
     6     3     4    1
     7     3     8    1
     8     3     9    1
     9     4    10    1

