@<TRIPOS>MOLECULE
EDO_1_H_301
 10 9 0 0 0
SMALL
NO_CHARGES

@<TRIPOS>ATOM
      1 C1        -21.0790    1.3460    3.8430 C.3    301  EDO301      0.0000
      2 O1        -19.8430    2.0720    3.8100 O.3    301  EDO301      0.0000
      3 C2        -20.8500   -0.1100    3.4790 C.3    301  EDO301      0.0000
      4 O2        -20.1630   -0.2050    2.2020 O.3    301  EDO301      0.0000
      5 H         -21.7945    1.8078    3.1297 H      301  EDO301      0.0000
      6 H         -21.5280    1.4207    4.8560 H      301  EDO301      0.0000
      7 H         -20.0222    2.9722    4.0462 H      301  EDO301      0.0000
      8 H         -21.8138   -0.6554    3.4128 H      301  EDO301      0.0000
      9 H         -20.2396   -0.6147    4.2572 H      301  EDO301      0.0000
     10 H         -19.4611    0.4352    2.2355 H      301  EDO301      0.0000
@<TRIPOS>BOND
     1     1     2    1
     2     1     3    1
     3     1     5    1
     4     1     6    1
     5     2     7    1
     6     3     4    1
     7     3     8    1
     8     3     9    1
     9     4    10    1

