@<TRIPOS>MOLECULE
EDO_1_C_302
 10 9 0 0 0
SMALL
NO_CHARGES

@<TRIPOS>ATOM
      1 C1          7.2830    8.7740   56.3080 C.3    302  EDO302      0.0000
      2 O1          6.2230    7.8280   56.2270 O.3    302  EDO302      0.0000
      3 C2          7.3050    9.1990   57.7590 C.3    302  EDO302      0.0000
      4 O2          6.5800    8.2160   58.4950 O.3    302  EDO302      0.0000
      5 H           7.0883    9.6264   55.6263 H      302  EDO302      0.0000
      6 H           8.2374    8.2952   56.0047 H      302  EDO302      0.0000
      7 H           6.4166    7.1015   56.8059 H      302  EDO302      0.0000
      8 H           6.8143   10.1879   57.8808 H      302  EDO302      0.0000
      9 H           8.3433    9.2825   58.1419 H      302  EDO302      0.0000
     10 H           6.4621    8.5340   59.3805 H      302  EDO302      0.0000
@<TRIPOS>BOND
     1     1     2    1
     2     1     3    1
     3     1     5    1
     4     1     6    1
     5     2     7    1
     6     3     4    1
     7     3     8    1
     8     3     9    1
     9     4    10    1

