@<TRIPOS>MOLECULE
EDO_1_C_301
 10 9 0 0 0
SMALL
NO_CHARGES

@<TRIPOS>ATOM
      1 C1         12.6520    3.7640   35.2460 C.3    301  EDO301      0.0000
      2 O1         14.0180    4.1170   35.0200 O.3    301  EDO301      0.0000
      3 C2         12.6170    2.2740   35.5730 C.3    301  EDO301      0.0000
      4 O2         13.0610    2.0390   36.9270 O.3    301  EDO301      0.0000
      5 H          12.0468    3.9859   34.3416 H      301  EDO301      0.0000
      6 H          12.2411    4.3694   36.0795 H      301  EDO301      0.0000
      7 H          14.1957    4.0674   34.0899 H      301  EDO301      0.0000
      8 H          13.2375    1.6869   34.8642 H      301  EDO301      0.0000
      9 H          11.5782    1.8939   35.4812 H      301  EDO301      0.0000
     10 H          13.9099    2.4562   37.0092 H      301  EDO301      0.0000
@<TRIPOS>BOND
     1     1     2    1
     2     1     3    1
     3     1     5    1
     4     1     6    1
     5     2     7    1
     6     3     4    1
     7     3     8    1
     8     3     9    1
     9     4    10    1

