@<TRIPOS>MOLECULE
DMS_2_A_1007
 10 9 0 0 0
SMALL
NO_CHARGES

@<TRIPOS>ATOM
      1 S          -7.1290  -21.0830  -28.8650 S.o   1007  DMS1007      0.0000
      2 O          -5.8180  -20.6380  -29.4330 O.2   1007  DMS1007      0.0000
      3 C1         -6.8740  -22.7940  -28.5580 C.3   1007  DMS1007      0.0000
      4 C2         -8.1540  -21.2720  -30.2800 C.3   1007  DMS1007      0.0000
      5 H          -7.8390  -23.2821  -28.3112 H     1007  DMS1007      0.0000
      6 H          -6.1867  -22.9138  -27.6955 H     1007  DMS1007      0.0000
      7 H          -6.4268  -23.2911  -29.4433 H     1007  DMS1007      0.0000
      8 H          -9.0956  -21.7868  -29.9992 H     1007  DMS1007      0.0000
      9 H          -7.6355  -21.8576  -31.0668 H     1007  DMS1007      0.0000
     10 H          -8.4060  -20.2712  -30.6868 H     1007  DMS1007      0.0000
@<TRIPOS>BOND
     1     1     2    2
     2     1     3    1
     3     1     4    1
     4     3     5    1
     5     3     6    1
     6     3     7    1
     7     4     8    1
     8     4     9    1
     9     4    10    1

