DMS_2_A_1006
  -ISIS-            3D

 10  9  0  0  0  0  0  0  0  0  1 V2000
  -21.1980   14.6100   -8.0760 S   0  0  0  0  0
  -22.6590   14.5520   -7.9380 O   0  0  0  0  0
  -20.8010   13.2250   -9.0900 C   0  0  0  0  0
  -20.6090   13.9020   -6.5720 C   0  0  0  0  0
  -19.7036   13.0634   -9.0987 H   0  0  0  0  0
  -21.1366   13.4237  -10.1285 H   0  0  0  0  0
  -21.3055   12.3083   -8.7213 H   0  0  0  0  0
  -19.5167   13.7212   -6.6404 H   0  0  0  0  0
  -21.1279   12.9455   -6.3560 H   0  0  0  0  0
  -20.7982   14.6072   -5.7368 H   0  0  0  0  0
  1  2  2  0  0  0
  1  3  1  0  0  0
  1  4  1  0  0  0
  3  5  1  0  0  0
  3  6  1  0  0  0
  3  7  1  0  0  0
  4  8  1  0  0  0
  4  9  1  0  0  0
  4 10  1  0  0  0
M  END
$$$$
