@<TRIPOS>MOLECULE
DMS_1_A_1006
 10 9 0 0 0
SMALL
NO_CHARGES

@<TRIPOS>ATOM
      1 S          21.1980   14.6100    8.0760 S.o   1006  DMS1006      0.0000
      2 O          22.6590   14.5520    7.9380 O.2   1006  DMS1006      0.0000
      3 C1         20.8010   13.2250    9.0900 C.3   1006  DMS1006      0.0000
      4 C2         20.6090   13.9020    6.5720 C.3   1006  DMS1006      0.0000
      5 H          19.7036   13.0634    9.0987 H     1006  DMS1006      0.0000
      6 H          21.1366   13.4237   10.1285 H     1006  DMS1006      0.0000
      7 H          21.3055   12.3083    8.7213 H     1006  DMS1006      0.0000
      8 H          19.5167   13.7212    6.6404 H     1006  DMS1006      0.0000
      9 H          21.1279   12.9455    6.3560 H     1006  DMS1006      0.0000
     10 H          20.7982   14.6072    5.7368 H     1006  DMS1006      0.0000
@<TRIPOS>BOND
     1     1     2    2
     2     1     3    1
     3     1     4    1
     4     3     5    1
     5     3     6    1
     6     3     7    1
     7     4     8    1
     8     4     9    1
     9     4    10    1

