DMS_2_A_403
  -ISIS-            3D

 10  9  0  0  0  0  0  0  0  0  1 V2000
   -2.3390  -19.0060   -8.1050 S   0  0  0  0  0
   -3.5670  -18.6640   -8.8950 O   0  0  0  0  0
   -0.9700  -18.2570   -8.9590 C   0  0  0  0  0
   -1.9720  -20.6900   -8.5460 C   0  0  0  0  0
   -0.0142  -18.6100   -8.5209 H   0  0  0  0  0
   -1.0286  -17.1549   -8.8483 H   0  0  0  0  0
   -0.9996  -18.5128  -10.0382 H   0  0  0  0  0
   -0.9885  -20.9835   -8.1255 H   0  0  0  0  0
   -1.9523  -20.8068   -9.6492 H   0  0  0  0  0
   -2.7530  -21.3569   -8.1268 H   0  0  0  0  0
  1  2  2  0  0  0
  1  3  1  0  0  0
  1  4  1  0  0  0
  3  5  1  0  0  0
  3  6  1  0  0  0
  3  7  1  0  0  0
  4  8  1  0  0  0
  4  9  1  0  0  0
  4 10  1  0  0  0
M  END
$$$$
