@<TRIPOS>MOLECULE
54T_1_A_201
 16 17 0 0 0
SMALL
NO_CHARGES

@<TRIPOS>ATOM
      1 N1        -50.3770  -28.9390    6.2400 N.ar   201  54T201      0.0000
      2 C4        -47.0360  -29.4480    4.7310 C.ar   201  54T201      0.0000
      3 C5        -47.3540  -29.3260    3.3800 C.ar   201  54T201      0.0000
      4 C6        -49.8560  -29.1020    7.4820 C.ar   201  54T201      0.0000
      5 CL        -46.1320  -29.4690    2.0720 Cl     201  54T201      0.0000
      6 C         -48.6550  -29.0640    2.9850 C.ar   201  54T201      0.0000
      7 C3        -48.0670  -29.3220    5.6790 C.ar   201  54T201      0.0000
      8 S         -48.2090  -29.4120    7.3430 S.3    201  54T201      0.0000
      9 N         -50.6640  -29.0390    8.6780 N.3    201  54T201      0.0000
     10 C2        -49.3530  -29.0590    5.2540 C.ar   201  54T201      0.0000
     11 C1        -49.6650  -28.9210    3.8960 C.ar   201  54T201      0.0000
     12 H         -46.0021  -29.6462    5.0556 H      201  54T201      0.0000
     13 H         -48.8909  -28.9633    1.9118 H      201  54T201      0.0000
     14 H         -50.1730  -29.1878    9.5685 H      201  54T201      0.0000
     15 H         -51.6621  -28.8498    8.5254 H      201  54T201      0.0000
     16 H         -50.6980  -28.7084    3.5769 H      201  54T201      0.0000
@<TRIPOS>BOND
     1     1     4   ar
     2     1    10   ar
     3     2     3   ar
     4     2     7   ar
     5     2    12    1
     6     3     5    1
     7     3     6   ar
     8     4     8   ar
     9     4     9    1
    10     6    11   ar
    11     6    13    1
    12     7     8   ar
    13     7    10   ar
    14     9    14    1
    15     9    15    1
    16    10    11   ar
    17    11    16    1

