@<TRIPOS>MOLECULE
DMS_1_A_405
 10 9 0 0 0
SMALL
NO_CHARGES

@<TRIPOS>ATOM
      1 S          11.6270    3.1720   33.2570 S.o    405  DMS405      0.0000
      2 O          12.6230    3.5270   32.2010 O.2    405  DMS405      0.0000
      3 C1         10.0900    4.0900   32.9600 C.3    405  DMS405      0.0000
      4 C2         12.1290    3.9040   34.8390 C.3    405  DMS405      0.0000
      5 H           9.3699    3.8824   33.7776 H      405  DMS405      0.0000
      6 H           9.6506    3.7646   31.9949 H      405  DMS405      0.0000
      7 H          10.3033    5.1778   32.9184 H      405  DMS405      0.0000
      8 H          11.3534    3.7000   35.6052 H      405  DMS405      0.0000
      9 H          12.2588    4.9995   34.7225 H      405  DMS405      0.0000
     10 H          13.0893    3.4526   35.1621 H      405  DMS405      0.0000
@<TRIPOS>BOND
     1     1     2    2
     2     1     3    1
     3     1     4    1
     4     3     5    1
     5     3     6    1
     6     3     7    1
     7     4     8    1
     8     4     9    1
     9     4    10    1

