DMS_1_A_404
  -ISIS-            3D

 10  9  0  0  0  0  0  0  0  0  1 V2000
  -23.9720   -3.7940    9.3540 S   0  0  0  0  0
  -25.0330   -3.0900   10.1380 O   0  0  0  0  0
  -23.1710   -5.0570   10.3800 C   0  0  0  0  0
  -22.5720   -2.6760    9.0700 C   0  0  0  0  0
  -22.3489   -5.5335    9.8078 H   0  0  0  0  0
  -23.9174   -5.8287   10.6587 H   0  0  0  0  0
  -22.7633   -4.5907   11.3003 H   0  0  0  0  0
  -21.7660   -3.2189    8.5353 H   0  0  0  0  0
  -22.1880   -2.3003   10.0405 H   0  0  0  0  0
  -22.9083   -1.8191    8.4512 H   0  0  0  0  0
  1  2  2  0  0  0
  1  3  1  0  0  0
  1  4  1  0  0  0
  3  5  1  0  0  0
  3  6  1  0  0  0
  3  7  1  0  0  0
  4  8  1  0  0  0
  4  9  1  0  0  0
  4 10  1  0  0  0
M  END
$$$$
