DMS_1_A_407
  -ISIS-            3D

 10  9  0  0  0  0  0  0  0  0  1 V2000
    0.0970  -12.1390   17.6790 S   0  0  0  0  0
    0.1990  -13.3770   16.8460 O   0  0  0  0  0
    1.7310  -11.3580   17.7690 C   0  0  0  0  0
   -0.0940  -12.5810   19.4280 C   0  0  0  0  0
    1.6859  -10.4773   18.4418 H   0  0  0  0  0
    2.0336  -11.0263   16.7547 H   0  0  0  0  0
    2.4759  -12.0840   18.1545 H   0  0  0  0  0
   -0.0864  -11.6608   20.0473 H   0  0  0  0  0
    0.7347  -13.2486   19.7413 H   0  0  0  0  0
   -1.0607  -13.1066   19.5680 H   0  0  0  0  0
  1  2  2  0  0  0
  1  3  1  0  0  0
  1  4  1  0  0  0
  3  5  1  0  0  0
  3  6  1  0  0  0
  3  7  1  0  0  0
  4  8  1  0  0  0
  4  9  1  0  0  0
  4 10  1  0  0  0
M  END
$$$$
