@<TRIPOS>MOLECULE
DMS_1_B_404
 10 9 0 0 0
SMALL
NO_CHARGES

@<TRIPOS>ATOM
      1 S          -6.9630    3.4360   11.7780 S.o    404  DMS404      0.0000
      2 O          -7.8350    2.2920   11.3710 O.2    404  DMS404      0.0000
      3 C1         -7.6280    4.9840   11.1040 C.3    404  DMS404      0.0000
      4 C2         -5.3850    3.3460   10.8880 C.3    404  DMS404      0.0000
      5 H          -6.9460    5.8216   11.3562 H      404  DMS404      0.0000
      6 H          -8.6250    5.1777   11.5499 H      404  DMS404      0.0000
      7 H          -7.7275    4.9027   10.0021 H      404  DMS404      0.0000
      8 H          -4.7630    4.2275   11.1455 H      404  DMS404      0.0000
      9 H          -5.5702    3.3268    9.7944 H      404  DMS404      0.0000
     10 H          -4.8497    2.4215   11.1865 H      404  DMS404      0.0000
@<TRIPOS>BOND
     1     1     2    2
     2     1     3    1
     3     1     4    1
     4     3     5    1
     5     3     6    1
     6     3     7    1
     7     4     8    1
     8     4     9    1
     9     4    10    1

