@<TRIPOS>MOLECULE
DMS_1_A_401
 10 9 0 0 0
SMALL
NO_CHARGES

@<TRIPOS>ATOM
      1 S         -21.3730  -10.8210    8.6890 S.o    401  DMS401      0.0000
      2 O         -20.2980   -9.7880    8.5790 O.2    401  DMS401      0.0000
      3 C1        -22.5750  -10.5840    7.3530 C.3    401  DMS401      0.0000
      4 C2        -22.4170  -10.4620   10.1270 C.3    401  DMS401      0.0000
      5 H         -23.4070  -11.3082    7.4696 H      401  DMS401      0.0000
      6 H         -22.0755  -10.7559    6.3777 H      401  DMS401      0.0000
      7 H         -22.9740   -9.5493    7.3843 H      401  DMS401      0.0000
      8 H         -23.2528  -11.1899   10.1698 H      401  DMS401      0.0000
      9 H         -22.8227   -9.4323   10.0504 H      401  DMS401      0.0000
     10 H         -21.8089  -10.5495   11.0505 H      401  DMS401      0.0000
@<TRIPOS>BOND
     1     1     2    2
     2     1     3    1
     3     1     4    1
     4     3     5    1
     5     3     6    1
     6     3     7    1
     7     4     8    1
     8     4     9    1
     9     4    10    1

