DMS_1_A_401
  -ISIS-            3D

 10  9  0  0  0  0  0  0  0  0  1 V2000
  -21.3730  -10.8210    8.6890 S   0  0  0  0  0
  -20.2980   -9.7880    8.5790 O   0  0  0  0  0
  -22.5750  -10.5840    7.3530 C   0  0  0  0  0
  -22.4170  -10.4620   10.1270 C   0  0  0  0  0
  -23.4070  -11.3082    7.4696 H   0  0  0  0  0
  -22.0755  -10.7559    6.3777 H   0  0  0  0  0
  -22.9740   -9.5493    7.3843 H   0  0  0  0  0
  -23.2528  -11.1899   10.1698 H   0  0  0  0  0
  -22.8227   -9.4323   10.0504 H   0  0  0  0  0
  -21.8089  -10.5495   11.0505 H   0  0  0  0  0
  1  2  2  0  0  0
  1  3  1  0  0  0
  1  4  1  0  0  0
  3  5  1  0  0  0
  3  6  1  0  0  0
  3  7  1  0  0  0
  4  8  1  0  0  0
  4  9  1  0  0  0
  4 10  1  0  0  0
M  END
$$$$
