@<TRIPOS>MOLECULE
DMS_1_A_403
 10 9 0 0 0
SMALL
NO_CHARGES

@<TRIPOS>ATOM
      1 S         -24.6440   -8.9050   37.9720 S.o    403  DMS403      0.0000
      2 O         -25.9130   -8.1320   38.1390 O.2    403  DMS403      0.0000
      3 C1        -25.0320  -10.6730   37.8520 C.3    403  DMS403      0.0000
      4 C2        -23.7090   -8.8860   39.5270 C.3    403  DMS403      0.0000
      5 H         -24.0904  -11.2563   37.7931 H      403  DMS403      0.0000
      6 H         -25.6319  -10.8542   36.9368 H      403  DMS403      0.0000
      7 H         -25.6129  -10.9920   38.7416 H      403  DMS403      0.0000
      8 H         -22.8022   -9.5161   39.4224 H      403  DMS403      0.0000
      9 H         -24.3411   -9.2762   40.3508 H      403  DMS403      0.0000
     10 H         -23.4056   -7.8445   39.7582 H      403  DMS403      0.0000
@<TRIPOS>BOND
     1     1     2    2
     2     1     3    1
     3     1     4    1
     4     3     5    1
     5     3     6    1
     6     3     7    1
     7     4     8    1
     8     4     9    1
     9     4    10    1

