@<TRIPOS>MOLECULE
DMS_2_A_403
 10 9 0 0 0
SMALL
NO_CHARGES

@<TRIPOS>ATOM
      1 S          -6.1640   -0.9820    6.2790 S.o    403  DMS403      0.0000
      2 O          -7.1060   -0.8140    7.3840 O.2    403  DMS403      0.0000
      3 C1         -7.1220   -0.8660    4.7600 C.3    403  DMS403      0.0000
      4 C2         -5.7570   -2.7080    6.1790 C.3    403  DMS403      0.0000
      5 H          -6.4758   -1.1061    3.8910 H      403  DMS403      0.0000
      6 H          -7.5059    0.1688    4.6487 H      403  DMS403      0.0000
      7 H          -7.9787   -1.5700    4.7921 H      403  DMS403      0.0000
      8 H          -5.1451   -2.8981    5.2736 H      403  DMS403      0.0000
      9 H          -6.6810   -3.3204    6.1364 H      403  DMS403      0.0000
     10 H          -5.1714   -2.9992    7.0750 H      403  DMS403      0.0000
@<TRIPOS>BOND
     1     1     2    2
     2     1     3    1
     3     1     4    1
     4     3     5    1
     5     3     6    1
     6     3     7    1
     7     4     8    1
     8     4     9    1
     9     4    10    1

