DMS_2_A_405
  -ISIS-            3D

 10  9  0  0  0  0  0  0  0  0  1 V2000
   -7.8230  -21.1910  -29.4760 S   0  0  0  0  0
   -8.1150  -22.6680  -29.4670 O   0  0  0  0  0
   -7.9640  -20.6680  -31.1700 C   0  0  0  0  0
   -6.0550  -21.0450  -29.3210 C   0  0  0  0  0
   -7.6165  -19.6192  -31.2699 H   0  0  0  0  0
   -9.0265  -20.7248  -31.4835 H   0  0  0  0  0
   -7.3576  -21.3229  -31.8283 H   0  0  0  0  0
   -5.7512  -19.9878  -29.4652 H   0  0  0  0  0
   -5.5474  -21.6818  -30.0738 H   0  0  0  0  0
   -5.7483  -21.3707  -28.3060 H   0  0  0  0  0
  1  2  2  0  0  0
  1  3  1  0  0  0
  1  4  1  0  0  0
  3  5  1  0  0  0
  3  6  1  0  0  0
  3  7  1  0  0  0
  4  8  1  0  0  0
  4  9  1  0  0  0
  4 10  1  0  0  0
M  END
$$$$
