@<TRIPOS>MOLECULE
DMS_1_A_405
 10 9 0 0 0
SMALL
NO_CHARGES

@<TRIPOS>ATOM
      1 S           7.8230  -21.1910   29.4760 S.o    405  DMS405      0.0000
      2 O           8.1150  -22.6680   29.4670 O.2    405  DMS405      0.0000
      3 C1          7.9640  -20.6680   31.1700 C.3    405  DMS405      0.0000
      4 C2          6.0550  -21.0450   29.3210 C.3    405  DMS405      0.0000
      5 H           7.6165  -19.6192   31.2699 H      405  DMS405      0.0000
      6 H           9.0265  -20.7248   31.4835 H      405  DMS405      0.0000
      7 H           7.3576  -21.3229   31.8283 H      405  DMS405      0.0000
      8 H           5.7512  -19.9878   29.4652 H      405  DMS405      0.0000
      9 H           5.5474  -21.6818   30.0738 H      405  DMS405      0.0000
     10 H           5.7483  -21.3707   28.3060 H      405  DMS405      0.0000
@<TRIPOS>BOND
     1     1     2    2
     2     1     3    1
     3     1     4    1
     4     3     5    1
     5     3     6    1
     6     3     7    1
     7     4     8    1
     8     4     9    1
     9     4    10    1

