@<TRIPOS>MOLECULE
FMT_2_A_411
 4 3 0 0 0
SMALL
NO_CHARGES

@<TRIPOS>ATOM
      1 C          -3.5400   12.1270   21.8340 C.2    411  FMT411      0.0000
      2 O1         -2.8980   11.1360   21.5390 O.2    411  FMT411     -0.5000
      3 O2         -3.6990   13.2060   21.0890 O.3    411  FMT411     -0.5000
      4 H          -4.0634   12.1310   22.8633 H      411  FMT411      0.0000
@<TRIPOS>BOND
     1     1     2   ar
     2     1     3   ar
     3     1     4    1

