@<TRIPOS>MOLECULE
FMT_2_A_414
 4 3 0 0 0
SMALL
NO_CHARGES

@<TRIPOS>ATOM
      1 C          -6.7360    2.9280  -29.7230 C.2    414  FMT414      0.0000
      2 O1         -6.1860    1.9840  -29.1930 O.2    414  FMT414     -0.5000
      3 O2         -8.0760    3.0480  -29.7970 O.3    414  FMT414     -0.5000
      4 H          -6.0912    3.7647  -30.1869 H      414  FMT414      0.0000
@<TRIPOS>BOND
     1     1     2   ar
     2     1     3   ar
     3     1     4    1

