@<TRIPOS>MOLECULE
FMT_2_A_410
 4 3 0 0 0
SMALL
NO_CHARGES

@<TRIPOS>ATOM
      1 C         -10.3020  -11.3890  -30.7170 C.2    410  FMT410      0.0000
      2 O1         -9.0990  -11.4200  -30.8710 O.2    410  FMT410     -0.5000
      3 O2        -10.9950  -12.3640  -30.1730 O.3    410  FMT410     -0.5000
      4 H         -10.8780  -10.4520  -31.0662 H      410  FMT410      0.0000
@<TRIPOS>BOND
     1     1     2   ar
     2     1     3   ar
     3     1     4    1

