FMT_2_A_411
  -ISIS-            3D

  4  3  0  0  0  0  0  0  0  0  1 V2000
   -3.5400   12.1270   21.8340 C   0  0  0  0  0
   -2.8980   11.1360   21.5390 O   0  0  0  0  0
   -3.6990   13.2060   21.0890 O   0  0  0  0  0
   -4.0634   12.1310   22.8633 H   0  0  0  0  0
  1  2  2  0  0  0
  1  3  1  0  0  0
  1  4  1  0  0  0
M  END
$$$$
