@<TRIPOS>MOLECULE
FMT_2_A_413
 4 3 0 0 0
SMALL
NO_CHARGES

@<TRIPOS>ATOM
      1 C         -27.2200  -10.9260  -17.1000 C.2    413  FMT413      0.0000
      2 O1        -26.3990  -10.6510  -17.9530 O.2    413  FMT413     -0.5000
      3 O2        -27.7960  -12.0950  -16.9560 O.3    413  FMT413     -0.5000
      4 H         -27.5207  -10.0972  -16.3548 H      413  FMT413      0.0000
@<TRIPOS>BOND
     1     1     2   ar
     2     1     3   ar
     3     1     4    1

