FMT_1_A_414
  -ISIS-            3D

  4  3  0  0  0  0  0  0  0  0  1 V2000
    6.7360    2.9280   29.7230 C   0  0  0  0  0
    6.1860    1.9840   29.1930 O   0  0  0  0  0
    8.0760    3.0480   29.7970 O   0  0  0  0  0
    6.0912    3.7647   30.1869 H   0  0  0  0  0
  1  2  2  0  0  0
  1  3  1  0  0  0
  1  4  1  0  0  0
M  END
$$$$
