@<TRIPOS>MOLECULE
FMT_2_A_408
 3 2 0 0 0
SMALL
NO_CHARGES

@<TRIPOS>ATOM
      1 C          -6.0590    0.8730  -17.7910 C.2    408  FMT408      0.0000
      2 O1         -5.1330    1.1660  -18.5320 O.2    408  FMT408      0.0000
      3 O2         -7.0430    0.0900  -18.0760 O.2    408  FMT408     -0.5000
@<TRIPOS>BOND
     1     1     2   ar
     2     1     3   ar

