@<TRIPOS>MOLECULE
FMT_1_A_409
 4 3 0 0 0
SMALL
NO_CHARGES

@<TRIPOS>ATOM
      1 C           2.0380   10.0210    9.3450 C.2    409  FMT409      0.0000
      2 O1          2.2710    9.3470   10.3370 O.2    409  FMT409     -0.5000
      3 O2          2.9170   10.6760    8.6460 O.3    409  FMT409     -0.5000
      4 H           0.9404   10.0854    8.9924 H      409  FMT409      0.0000
@<TRIPOS>BOND
     1     1     2   ar
     2     1     3   ar
     3     1     4    1

