@<TRIPOS>MOLECULE
FMT_1_A_407
 4 3 0 0 0
SMALL
NO_CHARGES

@<TRIPOS>ATOM
      1 C           6.2250   22.2610   -1.6950 C.2    407  FMT407      0.0000
      2 O1          6.3830   21.1360   -1.2630 O.2    407  FMT407     -0.5000
      3 O2          7.0980   22.9450   -2.3960 O.3    407  FMT407     -0.5000
      4 H           5.2181   22.7802   -1.4719 H      407  FMT407      0.0000
@<TRIPOS>BOND
     1     1     2   ar
     2     1     3   ar
     3     1     4    1

