DMS_2_A_401
  -ISIS-            3D

 10  9  0  0  0  0  0  0  0  0  1 V2000
   -6.9390  -28.1670  -21.3970 S   0  0  0  0  0
   -7.6450  -27.2140  -22.2830 O   0  0  0  0  0
   -5.7130  -28.9680  -22.3960 C   0  0  0  0  0
   -5.8530  -27.1930  -20.4080 C   0  0  0  0  0
   -5.0543  -29.5907  -21.7568 H   0  0  0  0  0
   -5.1008  -28.2159  -22.9350 H   0  0  0  0  0
   -6.2145  -29.6230  -23.1374 H   0  0  0  0  0
   -5.1887  -27.8537  -19.8143 H   0  0  0  0  0
   -6.4497  -26.5690  -19.7116 H   0  0  0  0  0
   -5.2358  -26.5288  -21.0475 H   0  0  0  0  0
  1  2  2  0  0  0
  1  3  1  0  0  0
  1  4  1  0  0  0
  3  5  1  0  0  0
  3  6  1  0  0  0
  3  7  1  0  0  0
  4  8  1  0  0  0
  4  9  1  0  0  0
  4 10  1  0  0  0
M  END
$$$$
