DMS_1_A_402
  -ISIS-            3D

 10  9  0  0  0  0  0  0  0  0  1 V2000
    6.2220   -1.1050   -6.3230 S   0  0  0  0  0
    7.0950   -1.0270   -7.5120 O   0  0  0  0  0
    7.2670   -0.8990   -4.8900 C   0  0  0  0  0
    5.8120   -2.8100   -6.0840 C   0  0  0  0  0
    6.6770   -1.0716   -3.9669 H   0  0  0  0  0
    7.6646    0.1364   -4.8734 H   0  0  0  0  0
    8.1160   -1.6124   -4.9264 H   0  0  0  0  0
    5.2589   -2.9345   -5.1308 H   0  0  0  0  0
    6.7321   -3.4297   -6.0611 H   0  0  0  0  0
    5.1670   -3.1526   -6.9189 H   0  0  0  0  0
  1  2  2  0  0  0
  1  3  1  0  0  0
  1  4  1  0  0  0
  3  5  1  0  0  0
  3  6  1  0  0  0
  3  7  1  0  0  0
  4  8  1  0  0  0
  4  9  1  0  0  0
  4 10  1  0  0  0
M  END
$$$$
