@<TRIPOS>MOLECULE
DMS_1_A_402
 10 9 0 0 0
SMALL
NO_CHARGES

@<TRIPOS>ATOM
      1 S           6.1500   -1.0610   -6.2610 S.o    402  DMS402      0.0000
      2 O           7.1400   -0.8880   -7.3340 O.2    402  DMS402      0.0000
      3 C1          7.0640   -0.9290   -4.7360 C.3    402  DMS402      0.0000
      4 C2          5.8150   -2.7830   -6.1840 C.3    402  DMS402      0.0000
      5 H           6.4095   -1.1954   -3.8811 H      402  DMS402      0.0000
      6 H           7.4129    0.1161   -4.6074 H      402  DMS402      0.0000
      7 H           7.9443   -1.6042   -4.7525 H      402  DMS402      0.0000
      8 H           5.1893   -3.0071   -5.2960 H      402  DMS402      0.0000
      9 H           6.7597   -3.3617   -6.1237 H      402  DMS402      0.0000
     10 H           5.2626   -3.0919   -7.0950 H      402  DMS402      0.0000
@<TRIPOS>BOND
     1     1     2    2
     2     1     3    1
     3     1     4    1
     4     3     5    1
     5     3     6    1
     6     3     7    1
     7     4     8    1
     8     4     9    1
     9     4    10    1

