@<TRIPOS>MOLECULE
BAQ_1_A_402
 9 9 0 0 0
SMALL
NO_CHARGES

@<TRIPOS>ATOM
      1 OAA        -0.8710    9.9090   -9.4130 O.2    402  BAQ402      0.0000
      2 CAF        -0.8460    9.3830   -8.3060 C.ar   402  BAQ402      0.0000
      3 CAD        -1.9960    9.2780   -7.3510 C.ar   402  BAQ402      0.0000
      4 CAB        -1.5030    8.3390   -6.2810 C.ar   402  BAQ402      0.0000
      5 CAC         0.0020    8.3480   -6.4080 C.ar   402  BAQ402      0.0000
      6 NAE         0.2160    8.8060   -7.7680 N.ar   402  BAQ402      0.0000
      7 H          -3.0007    9.6850   -7.5156 H      402  BAQ402      0.0000
      8 H          -2.0963    7.8890   -5.4754 H      402  BAQ402      0.0000
      9 H           0.7649    7.9468   -5.7346 H      402  BAQ402      0.0000
@<TRIPOS>BOND
     1     1     2    2
     2     2     3   ar
     3     2     6   ar
     4     3     4   ar
     5     3     7    1
     6     4     5   ar
     7     4     8    1
     8     5     6   ar
     9     5     9    1

