@<TRIPOS>MOLECULE
BAQ_1_A_401
 9 9 0 0 0
SMALL
NO_CHARGES

@<TRIPOS>ATOM
      1 OAA        -6.9320   15.0420   -0.5580 O.2    401  BAQ401      0.0000
      2 CAF        -5.7890   15.0210   -0.0960 C.ar   401  BAQ401      0.0000
      3 CAD        -5.4270   14.8620    1.3440 C.ar   401  BAQ401      0.0000
      4 CAB        -3.9890   15.3360    1.4110 C.ar   401  BAQ401      0.0000
      5 CAC        -3.4640   15.2020   -0.0030 C.ar   401  BAQ401      0.0000
      6 NAE        -4.6760   15.1360   -0.8060 N.ar   401  BAQ401      0.0000
      7 H          -6.1294   14.6628    2.1617 H      401  BAQ401      0.0000
      8 H          -3.4083   15.5622    2.3138 H      401  BAQ401      0.0000
      9 H          -2.4409   15.2855   -0.3811 H      401  BAQ401      0.0000
@<TRIPOS>BOND
     1     1     2    2
     2     2     3   ar
     3     2     6   ar
     4     3     4   ar
     5     3     7    1
     6     4     5   ar
     7     4     8    1
     8     5     6   ar
     9     5     9    1

