@<TRIPOS>MOLECULE
DMS_1_A_406
 10 9 0 0 0
SMALL
NO_CHARGES

@<TRIPOS>ATOM
      1 S          13.1760    4.5960   23.5510 S.o    406  DMS406      0.0000
      2 O          14.1710    4.9860   22.4880 O.2    406  DMS406      0.0000
      3 C1         12.0570    3.4500   22.7940 C.3    406  DMS406      0.0000
      4 C2         12.0620    5.9590   23.6890 C.3    406  DMS406      0.0000
      5 H          11.2112    3.2396   23.4800 H      406  DMS406      0.0000
      6 H          12.5913    2.5008   22.5844 H      406  DMS406      0.0000
      7 H          11.6665    3.8615   21.8407 H      406  DMS406      0.0000
      8 H          11.2140    5.6881   24.3507 H      406  DMS406      0.0000
      9 H          11.6738    6.2462   22.6903 H      406  DMS406      0.0000
     10 H          12.5955    6.8256   24.1304 H      406  DMS406      0.0000
@<TRIPOS>BOND
     1     1     2    2
     2     1     3    1
     3     1     4    1
     4     3     5    1
     5     3     6    1
     6     3     7    1
     7     4     8    1
     8     4     9    1
     9     4    10    1

