DMS_2_A_405
  -ISIS-            3D

 10  9  0  0  0  0  0  0  0  0  1 V2000
   -5.7110    0.0750  -18.2420 S   0  0  0  0  0
   -4.8870    1.2850  -18.6190 O   0  0  0  0  0
   -6.1970   -0.6720  -19.7720 C   0  0  0  0  0
   -7.3040    0.7080  -17.8100 C   0  0  0  0  0
   -6.9389   -1.4744  -19.5822 H   0  0  0  0  0
   -5.3069   -1.1187  -20.2603 H   0  0  0  0  0
   -6.6375    0.0854  -20.4527 H   0  0  0  0  0
   -8.0188   -0.1287  -17.6718 H   0  0  0  0  0
   -7.6807    1.3888  -18.6010 H   0  0  0  0  0
   -7.2284    1.2719  -16.8578 H   0  0  0  0  0
  1  2  2  0  0  0
  1  3  1  0  0  0
  1  4  1  0  0  0
  3  5  1  0  0  0
  3  6  1  0  0  0
  3  7  1  0  0  0
  4  8  1  0  0  0
  4  9  1  0  0  0
  4 10  1  0  0  0
M  END
$$$$
