@<TRIPOS>MOLECULE
DMS_2_A_405
 10 9 0 0 0
SMALL
NO_CHARGES

@<TRIPOS>ATOM
      1 S          -5.7110    0.0750  -18.2420 S.o    405  DMS405      0.0000
      2 O          -4.8870    1.2850  -18.6190 O.2    405  DMS405      0.0000
      3 C1         -6.1970   -0.6720  -19.7720 C.3    405  DMS405      0.0000
      4 C2         -7.3040    0.7080  -17.8100 C.3    405  DMS405      0.0000
      5 H          -6.9389   -1.4744  -19.5822 H      405  DMS405      0.0000
      6 H          -5.3069   -1.1187  -20.2603 H      405  DMS405      0.0000
      7 H          -6.6375    0.0854  -20.4527 H      405  DMS405      0.0000
      8 H          -8.0188   -0.1287  -17.6718 H      405  DMS405      0.0000
      9 H          -7.6807    1.3888  -18.6010 H      405  DMS405      0.0000
     10 H          -7.2284    1.2719  -16.8578 H      405  DMS405      0.0000
@<TRIPOS>BOND
     1     1     2    2
     2     1     3    1
     3     1     4    1
     4     3     5    1
     5     3     6    1
     6     3     7    1
     7     4     8    1
     8     4     9    1
     9     4    10    1

