@<TRIPOS>MOLECULE
A2R_1_A_202
 62 65 0 0 0
SMALL
NO_CHARGES

@<TRIPOS>ATOM
      1 OP3        19.4560   40.6930   34.0770 O.co2  202  A2R202     -0.5000
      2 P2'        20.6410   40.0680   34.8030 P.3    202  A2R202      0.0000
      3 OP1        20.3770   38.6190   35.1900 O.co2  202  A2R202     -0.5000
      4 OP2        21.0770   40.9060   35.9700 O.co2  202  A2R202      0.0000
      5 O2'        21.8600   39.9610   33.6800 O.3    202  A2R202      0.0000
      6 C2'        22.6680   41.1290   33.4970 C.3    202  A2R202      0.0000
      7 C1'        24.1440   40.7710   33.3930 C.3    202  A2R202      0.0000
      8 N9         24.8800   40.5820   34.6500 N.ar   202  A2R202      0.0000
      9 C4         26.1300   40.0310   34.7500 C.ar   202  A2R202      0.0000
     10 N3         26.8780   39.5410   33.7440 N.ar   202  A2R202      0.0000
     11 C2         28.0340   39.0700   34.2130 C.ar   202  A2R202      0.0000
     12 N1         28.5070   39.0600   35.4690 N.ar   202  A2R202      0.0000
     13 C6         27.7290   39.5740   36.4590 C.ar   202  A2R202      0.0000
     14 N6         28.1740   39.5540   37.7180 N.pl3  202  A2R202      0.0000
     15 C5         26.4700   40.0840   36.0870 C.ar   202  A2R202      0.0000
     16 N7         25.4470   40.6620   36.8170 N.ar   202  A2R202      0.0000
     17 C8         24.5160   40.9440   35.9270 C.ar   202  A2R202      0.0000
     18 O4'        24.7450   41.8480   32.7120 O.3    202  A2R202      0.0000
     19 C3'        22.4350   41.7570   32.1210 C.3    202  A2R202      0.0000
     20 O3'        22.2350   40.8030   31.0750 O.3    202  A2R202      0.0000
     21 C4'        23.7540   42.5160   31.8860 C.3    202  A2R202      0.0000
     22 C5'        23.7580   43.9920   32.2060 C.3    202  A2R202      0.0000
     23 O5'        23.0230   44.2250   33.4320 O.3    202  A2R202      0.0000
     24 P          23.3430   45.4490   34.4340 P.3    202  A2R202      0.0000
     25 O1         24.6080   45.1710   35.1760 O.co2  202  A2R202      0.0000
     26 O2         22.1000   45.7350   35.1970 O.co2  202  A2R202      0.0000
     27 O3         23.6550   46.6460   33.4160 O.3    202  A2R202      0.0000
     28 P1         22.7040   47.6510   32.6140 P.3    202  A2R202      0.0000
     29 O11        23.5190   48.3610   31.5600 O.co2  202  A2R202      0.0000
     30 O12        21.4610   46.9170   32.2300 O.co2  202  A2R202      0.0000
     31 O15'       22.3400   48.6810   33.7840 O.3    202  A2R202      0.0000
     32 C15'       23.3220   49.6290   34.3000 C.3    202  A2R202      0.0000
     33 C14'       22.9050   50.1150   35.6780 C.3    202  A2R202      0.0000
     34 C13'       23.7860   51.2170   36.3040 C.3    202  A2R202      0.0000
     35 O13'       22.9460   52.2160   36.8630 O.3    202  A2R202      0.0000
     36 C12'       24.5560   50.4460   37.3720 C.3    202  A2R202      0.0000
     37 O12'       25.1150   51.2180   38.4060 O.3    202  A2R202      0.0000
     38 C11'       23.4280   49.5380   37.8410 C.3    202  A2R202      0.0000
     39 O14'       22.9290   49.0160   36.6260 O.3    202  A2R202      0.0000
     40 O11'       23.9420   48.5800   38.6120 O.3    202  A2R202      0.0000
     41 H          22.5131   41.8930   34.2838 H      202  A2R202      0.0000
     42 H          24.2628   39.8419   32.7945 H      202  A2R202      0.0000
     43 H          28.7094   38.6395   33.4535 H      202  A2R202      0.0000
     44 H          23.6085   41.4430   36.2840 H      202  A2R202      0.0000
     45 H          21.5707   42.4530   32.1448 H      202  A2R202      0.0000
     46 H          21.6175   40.1545   31.3914 H      202  A2R202      0.0000
     47 H          24.0550   42.3985   30.8222 H      202  A2R202      0.0000
     48 H          23.2665   44.5569   31.3864 H      202  A2R202      0.0000
     49 H          24.7999   44.3659   32.2878 H      202  A2R202      0.0000
     50 H          23.3954   50.4869   33.5994 H      202  A2R202      0.0000
     51 H          24.3253   49.1573   34.3566 H      202  A2R202      0.0000
     52 H          21.8614   50.4913   35.6015 H      202  A2R202      0.0000
     53 H          24.4837   51.6641   35.5655 H      202  A2R202      0.0000
     54 H          22.7377   52.8523   36.1922 H      202  A2R202      0.0000
     55 H          25.3582   49.8436   36.8956 H      202  A2R202      0.0000
     56 H          24.5104   51.9317   38.5752 H      202  A2R202      0.0000
     57 H          22.6410   50.1020   38.3814 H      202  A2R202      0.0000
     58 H          23.2614   47.9588   38.8351 H      202  A2R202      0.0000
     59 H          27.5606   39.9483   38.4425 H      202  A2R202      0.0000
     60 H          29.1053   39.1398   37.8485 H      202  A2R202      0.0000
     61 H          24.8265   46.0172   35.8953 H      202  A2R202      0.0000
     62 H          21.7421   40.3032   36.6589 H      202  A2R202      0.0000
@<TRIPOS>BOND
     1     1     2   ar
     2     2     3   ar
     3     2     4    1
     4     2     5    1
     5     5     6    1
     6     6     7    1
     7     6    19    1
     8     6    41    1
     9     7     8    1
    10     7    18    1
    11     7    42    1
    12     8     9   ar
    13     8    17   ar
    14     9    10   ar
    15     9    15   ar
    16    10    11   ar
    17    11    12   ar
    18    11    43    1
    19    12    13   ar
    20    13    14    1
    21    13    15   ar
    22    14    59    1
    23    14    60    1
    24    15    16   ar
    25    16    17   ar
    26    17    44    1
    27    18    21    1
    28    19    20    1
    29    19    21    1
    30    19    45    1
    31    20    46    1
    32    21    22    1
    33    21    47    1
    34    22    23    1
    35    22    48    1
    36    22    49    1
    37    23    24    1
    38    24    25    1
    39    24    26    2
    40    24    27    1
    41    27    28    1
    42    28    29    2
    43    28    30    2
    44    28    31    1
    45    31    32    1
    46    32    33    1
    47    32    50    1
    48    32    51    1
    49    33    34    1
    50    33    39    1
    51    33    52    1
    52    34    35    1
    53    34    36    1
    54    34    53    1
    55    35    54    1
    56    36    37    1
    57    36    38    1
    58    36    55    1
    59    37    56    1
    60    38    39    1
    61    38    40    1
    62    38    57    1
    63    40    58    1
    64    25    61    1
    65     4    62    1

