@<TRIPOS>MOLECULE
DMS_1_A_401
 10 9 0 0 0
SMALL
NO_CHARGES

@<TRIPOS>ATOM
      1 S           6.9620  -28.0630   21.4310 S.o    401  DMS401      0.0000
      2 O           7.7530  -27.0970   22.2320 O.2    401  DMS401      0.0000
      3 C1          5.6930  -28.7050   22.4970 C.3    401  DMS401      0.0000
      4 C2          5.9310  -27.0850   20.3970 C.3    401  DMS401      0.0000
      5 H           4.9821  -29.3202   21.9083 H      401  DMS401      0.0000
      6 H           5.1449  -27.8755   22.9890 H      401  DMS401      0.0000
      7 H           6.1576  -29.3427   23.2767 H      401  DMS401      0.0000
      8 H           5.2088  -27.7339   19.8607 H      401  DMS401      0.0000
      9 H           6.5557  -26.5549   19.6493 H      401  DMS401      0.0000
     10 H           5.3761  -26.3354   20.9977 H      401  DMS401      0.0000
@<TRIPOS>BOND
     1     1     2    2
     2     1     3    1
     3     1     4    1
     4     3     5    1
     5     3     6    1
     6     3     7    1
     7     4     8    1
     8     4     9    1
     9     4    10    1

