@<TRIPOS>MOLECULE
DMS_1_A_402
 10 9 0 0 0
SMALL
NO_CHARGES

@<TRIPOS>ATOM
      1 S           2.4160  -18.8970    8.0340 S.o    402  DMS402      0.0000
      2 O           3.7050  -18.7060    8.8740 O.2    402  DMS402      0.0000
      3 C1          1.1060  -18.1570    8.9920 C.3    402  DMS402      0.0000
      4 C2          1.9570  -20.5840    8.3680 C.3    402  DMS402      0.0000
      5 H           0.1223  -18.4221    8.5536 H      402  DMS402      0.0000
      6 H           1.2197  -17.0538    8.9737 H      402  DMS402      0.0000
      7 H           1.1496  -18.5056   10.0444 H      402  DMS402      0.0000
      8 H           0.9472  -20.7886    7.9572 H      402  DMS402      0.0000
      9 H           1.9589  -20.7795    9.4602 H      402  DMS402      0.0000
     10 H           2.6847  -21.2642    7.8798 H      402  DMS402      0.0000
@<TRIPOS>BOND
     1     1     2    2
     2     1     3    1
     3     1     4    1
     4     3     5    1
     5     3     6    1
     6     3     7    1
     7     4     8    1
     8     4     9    1
     9     4    10    1

