EDO_1_A_601
  -ISIS-            3D

 10  9  0  0  0  0  0  0  0  0  1 V2000
   25.8340  -12.5670   50.1820 C   0  0  0  0  0
   24.5570  -13.1830   50.2900 O   0  0  0  0  0
   26.8700  -13.3300   50.9760 C   0  0  0  0  0
   27.7720  -12.2860   51.3470 O   0  0  0  0  0
   25.7249  -11.5288   50.5614 H   0  0  0  0  0
   26.1309  -12.4813   49.1151 H   0  0  0  0  0
   24.5338  -13.9298   49.7060 H   0  0  0  0  0
   27.3888  -14.0954   50.3647 H   0  0  0  0  0
   26.4434  -13.8152   51.8788 H   0  0  0  0  0
   27.5493  -11.9890   52.2198 H   0  0  0  0  0
  1  2  1  0  0  0
  1  3  1  0  0  0
  1  5  1  0  0  0
  1  6  1  0  0  0
  2  7  1  0  0  0
  3  4  1  0  0  0
  3  8  1  0  0  0
  3  9  1  0  0  0
  4 10  1  0  0  0
M  END
$$$$
