@<TRIPOS>MOLECULE
EDO_1_A_601
 10 9 0 0 0
SMALL
NO_CHARGES

@<TRIPOS>ATOM
      1 C1         25.8340  -12.5670   50.1820 C.3    601  EDO601      0.0000
      2 O1         24.5570  -13.1830   50.2900 O.3    601  EDO601      0.0000
      3 C2         26.8700  -13.3300   50.9760 C.3    601  EDO601      0.0000
      4 O2         27.7720  -12.2860   51.3470 O.3    601  EDO601      0.0000
      5 H          25.7249  -11.5288   50.5614 H      601  EDO601      0.0000
      6 H          26.1309  -12.4813   49.1151 H      601  EDO601      0.0000
      7 H          24.5338  -13.9298   49.7060 H      601  EDO601      0.0000
      8 H          27.3888  -14.0954   50.3647 H      601  EDO601      0.0000
      9 H          26.4434  -13.8152   51.8788 H      601  EDO601      0.0000
     10 H          27.5493  -11.9890   52.2198 H      601  EDO601      0.0000
@<TRIPOS>BOND
     1     1     2    1
     2     1     3    1
     3     1     5    1
     4     1     6    1
     5     2     7    1
     6     3     4    1
     7     3     8    1
     8     3     9    1
     9     4    10    1

