EDO_1_E_201
  -ISIS-            3D

 10  9  0  0  0  0  0  0  0  0  1 V2000
   14.7610  -23.7840   50.6620 C   0  0  0  0  0
   15.5400  -24.5040   51.6280 O   0  0  0  0  0
   15.6820  -23.3110   49.5470 C   0  0  0  0  0
   16.0100  -24.3810   48.6510 O   0  0  0  0  0
   14.2635  -22.9221   51.1552 H   0  0  0  0  0
   13.9620  -24.4429   50.2650 H   0  0  0  0  0
   16.0051  -23.8812   52.1714 H   0  0  0  0  0
   16.6109  -22.8677   49.9638 H   0  0  0  0  0
   15.1755  -22.5099   48.9671 H   0  0  0  0  0
   16.6398  -24.0612   48.0182 H   0  0  0  0  0
  1  2  1  0  0  0
  1  3  1  0  0  0
  1  5  1  0  0  0
  1  6  1  0  0  0
  2  7  1  0  0  0
  3  4  1  0  0  0
  3  8  1  0  0  0
  3  9  1  0  0  0
  4 10  1  0  0  0
M  END
$$$$
