EDO_1_C_201
  -ISIS-            3D

 10  9  0  0  0  0  0  0  0  0  1 V2000
   35.2120  -22.8560   50.4270 C   0  0  0  0  0
   34.3780  -23.2990   51.4970 O   0  0  0  0  0
   36.4290  -22.0710   50.8470 C   0  0  0  0  0
   37.3630  -21.7360   49.8390 O   0  0  0  0  0
   34.6057  -22.2395   49.7290 H   0  0  0  0  0
   35.5399  -23.7477   49.8505 H   0  0  0  0  0
   33.6145  -23.7233   51.1276 H   0  0  0  0  0
   36.9622  -22.6320   51.6450 H   0  0  0  0  0
   36.0941  -21.1259   51.3243 H   0  0  0  0  0
   37.8361  -22.5202   49.5940 H   0  0  0  0  0
  1  2  1  0  0  0
  1  3  1  0  0  0
  1  5  1  0  0  0
  1  6  1  0  0  0
  2  7  1  0  0  0
  3  4  1  0  0  0
  3  8  1  0  0  0
  3  9  1  0  0  0
  4 10  1  0  0  0
M  END
$$$$
