EDO_1_A_602
  -ISIS-            3D

 10  9  0  0  0  0  0  0  0  0  1 V2000
   13.1950  -23.3340   37.8610 C   0  0  0  0  0
   12.8090  -23.8440   39.1270 O   0  0  0  0  0
   12.2170  -22.2660   37.4350 C   0  0  0  0  0
   12.1050  -22.4020   36.0130 O   0  0  0  0  0
   13.2332  -24.1704   37.1304 H   0  0  0  0  0
   14.2223  -22.9203   37.9291 H   0  0  0  0  0
   12.1554  -24.5177   38.9930 H   0  0  0  0  0
   12.5744  -21.2512   37.7075 H   0  0  0  0  0
   11.2171  -22.4186   37.8929 H   0  0  0  0  0
   11.5355  -21.7143   35.6942 H   0  0  0  0  0
  1  2  1  0  0  0
  1  3  1  0  0  0
  1  5  1  0  0  0
  1  6  1  0  0  0
  2  7  1  0  0  0
  3  4  1  0  0  0
  3  8  1  0  0  0
  3  9  1  0  0  0
  4 10  1  0  0  0
M  END
$$$$
