@<TRIPOS>MOLECULE
EDO_1_A_602
 10 9 0 0 0
SMALL
NO_CHARGES

@<TRIPOS>ATOM
      1 C1         13.1950  -23.3340   37.8610 C.3    602  EDO602      0.0000
      2 O1         12.8090  -23.8440   39.1270 O.3    602  EDO602      0.0000
      3 C2         12.2170  -22.2660   37.4350 C.3    602  EDO602      0.0000
      4 O2         12.1050  -22.4020   36.0130 O.3    602  EDO602      0.0000
      5 H          13.2332  -24.1704   37.1304 H      602  EDO602      0.0000
      6 H          14.2223  -22.9203   37.9291 H      602  EDO602      0.0000
      7 H          12.1554  -24.5177   38.9930 H      602  EDO602      0.0000
      8 H          12.5744  -21.2512   37.7075 H      602  EDO602      0.0000
      9 H          11.2171  -22.4186   37.8929 H      602  EDO602      0.0000
     10 H          11.5355  -21.7143   35.6942 H      602  EDO602      0.0000
@<TRIPOS>BOND
     1     1     2    1
     2     1     3    1
     3     1     5    1
     4     1     6    1
     5     2     7    1
     6     3     4    1
     7     3     8    1
     8     3     9    1
     9     4    10    1

