@<TRIPOS>MOLECULE
DMS_2_A_405
 10 9 0 0 0
SMALL
NO_CHARGES

@<TRIPOS>ATOM
      1 S          -6.4830    0.2150  -18.3170 S.o    405  DMS405      0.0000
      2 O          -7.5090    0.6800  -17.3380 O.2    405  DMS405      0.0000
      3 C1         -7.2860   -0.0840  -19.9110 C.3    405  DMS405      0.0000
      4 C2         -5.4580    1.6240  -18.8110 C.3    405  DMS405      0.0000
      5 H          -6.5212   -0.3445  -20.6707 H      405  DMS405      0.0000
      6 H          -7.8390    0.8222  -20.2334 H      405  DMS405      0.0000
      7 H          -7.9975   -0.9287  -19.8077 H      405  DMS405      0.0000
      8 H          -4.7502    1.3099  -19.6049 H      405  DMS405      0.0000
      9 H          -4.8829    1.9817  -17.9325 H      405  DMS405      0.0000
     10 H          -6.1000    2.4469  -19.1873 H      405  DMS405      0.0000
@<TRIPOS>BOND
     1     1     2    2
     2     1     3    1
     3     1     4    1
     4     3     5    1
     5     3     6    1
     6     3     7    1
     7     4     8    1
     8     4     9    1
     9     4    10    1

