@<TRIPOS>MOLECULE
DMS_1_A_404
 10 9 0 0 0
SMALL
NO_CHARGES

@<TRIPOS>ATOM
      1 S           6.2960   -1.4000   -6.6850 S.o    404  DMS404      0.0000
      2 O           5.6350   -0.1120   -7.0250 O.2    404  DMS404      0.0000
      3 C1          6.6250   -1.4850   -4.8860 C.3    404  DMS404      0.0000
      4 C2          5.0700   -2.7380   -6.8240 C.3    404  DMS404      0.0000
      5 H           7.0436   -2.4805   -4.6331 H      404  DMS404      0.0000
      6 H           5.6825   -1.3215   -4.3243 H      404  DMS404      0.0000
      7 H           7.3581   -0.6987   -4.6128 H      404  DMS404      0.0000
      8 H           5.5304   -3.6968   -6.5095 H      404  DMS404      0.0000
      9 H           4.7381   -2.8208   -7.8792 H      404  DMS404      0.0000
     10 H           4.1950   -2.5151   -6.1796 H      404  DMS404      0.0000
@<TRIPOS>BOND
     1     1     2    2
     2     1     3    1
     3     1     4    1
     4     3     5    1
     5     3     6    1
     6     3     7    1
     7     4     8    1
     8     4     9    1
     9     4    10    1

