@<TRIPOS>MOLECULE
DMS_1_A_403
 10 9 0 0 0
SMALL
NO_CHARGES

@<TRIPOS>ATOM
      1 S           2.4470  -18.5300    8.1360 S.o    403  DMS403      0.0000
      2 O           3.5880  -18.3820    9.1030 O.2    403  DMS403      0.0000
      3 C1          0.9670  -18.1410    9.0350 C.3    403  DMS403      0.0000
      4 C2          2.1850  -20.2780    7.9560 C.3    403  DMS403      0.0000
      5 H           0.0777  -18.3706    8.4129 H      403  DMS403      0.0000
      6 H           0.9617  -17.0596    9.2821 H      403  DMS403      0.0000
      7 H           0.9213  -18.7266    9.9757 H      403  DMS403      0.0000
      8 H           1.2673  -20.4612    7.3603 H      403  DMS403      0.0000
      9 H           2.0818  -20.7576    8.9507 H      403  DMS403      0.0000
     10 H           3.0508  -20.7259    7.4268 H      403  DMS403      0.0000
@<TRIPOS>BOND
     1     1     2    2
     2     1     3    1
     3     1     4    1
     4     3     5    1
     5     3     6    1
     6     3     7    1
     7     4     8    1
     8     4     9    1
     9     4    10    1

