DMS_2_A_401
  -ISIS-            3D

 10  9  0  0  0  0  0  0  0  0  1 V2000
   -7.7640  -28.3790  -20.7700 S   0  0  0  0  0
   -8.5580  -27.4740  -21.6540 O   0  0  0  0  0
   -6.6330  -29.2750  -21.8030 C   0  0  0  0  0
   -6.5600  -27.3500  -19.9590 C   0  0  0  0  0
   -5.9278  -29.8565  -21.1746 H   0  0  0  0  0
   -6.0632  -28.5767  -22.4498 H   0  0  0  0  0
   -7.2023  -29.9777  -22.4453 H   0  0  0  0  0
   -5.8526  -27.9805  -19.3825 H   0  0  0  0  0
   -7.0781  -26.6626  -19.2594 H   0  0  0  0  0
   -5.9985  -26.7503  -20.7045 H   0  0  0  0  0
  1  2  2  0  0  0
  1  3  1  0  0  0
  1  4  1  0  0  0
  3  5  1  0  0  0
  3  6  1  0  0  0
  3  7  1  0  0  0
  4  8  1  0  0  0
  4  9  1  0  0  0
  4 10  1  0  0  0
M  END
$$$$
