ALD_1_B_401
  -ISIS-            3D

 77 77  0  0  0  0  0  0  0  0  1 V2000
  -19.9190   -9.1030   -3.7840 C   0  0  0  0  0
  -20.0730   -9.6140   -2.6840 O   0  0  0  0  0
  -20.4380   -7.7690   -4.0360 O   0  0  0  0  0
  -21.5230   -7.2360   -3.2820 C   0  0  0  0  0
  -22.8850   -7.5800   -3.8540 C   0  0  0  0  0
  -23.3920   -8.8730   -3.7660 C   0  0  0  0  0
  -24.6520   -9.1660   -4.2820 C   0  0  0  0  0
  -25.4120   -8.1680   -4.8860 C   0  0  0  0  0
  -24.9080   -6.8740   -4.9760 C   0  0  0  0  0
  -23.6490   -6.5840   -4.4560 C   0  0  0  0  0
  -19.2870   -9.6690   -4.8030 N   0  0  0  0  0
  -18.7200  -11.0030   -4.7880 C   0  0  0  0  0
  -17.4070  -10.9780   -4.0850 C   0  0  0  0  0
  -16.5040  -10.2440   -4.4580 O   0  0  0  0  0
  -18.6020  -11.3920   -6.2590 C   0  0  0  0  0
  -18.0750  -12.7950   -6.5300 C   0  0  0  0  0
  -19.1380  -13.8520   -6.2850 C   0  0  0  0  0
  -17.5760  -12.8520   -7.9750 C   0  0  0  0  0
  -17.2830  -11.7980   -3.0550 N   0  0  0  0  0
  -15.9840  -11.9830   -2.3950 C   0  0  0  0  0
  -15.0930  -12.8360   -3.2680 C   0  0  0  0  0
  -15.4730  -13.9000   -3.7460 O   0  0  0  0  0
  -16.1720  -12.5300   -0.9860 C   0  0  0  0  0
  -17.0380  -11.6150   -0.1290 C   0  0  0  0  0
  -16.5100  -10.1990    0.0530 C   0  0  0  0  0
  -17.2760  -12.2410    1.2530 C   0  0  0  0  0
  -13.8680  -12.3510   -3.5060 N   0  0  0  0  0
  -12.9260  -13.0310   -4.3810 C   0  0  0  0  0
  -11.7180  -13.4840   -3.5460 C   0  0  0  0  0
  -12.4900  -12.0840   -5.5030 C   0  0  0  0  0
  -13.5190  -11.8530   -6.6060 C   0  0  0  0  0
  -13.8940  -13.1730   -7.2720 C   0  0  0  0  0
  -12.9730  -10.8430   -7.6210 C   0  0  0  0  0
  -10.8720  -14.3610   -4.3020 O   0  0  0  0  0
  -21.4102   -6.1333   -3.2321 H   0  0  0  0  0
  -21.4800   -7.5785   -2.2274 H   0  0  0  0  0
  -22.8011   -9.6717   -3.2872 H   0  0  0  0  0
  -25.0494  -10.1929   -4.2107 H   0  0  0  0  0
  -26.4102   -8.4028   -5.2932 H   0  0  0  0  0
  -25.5055   -6.0801   -5.4557 H   0  0  0  0  0
  -23.2643   -5.5524   -4.5302 H   0  0  0  0  0
  -19.1864   -9.0954   -5.6500 H   0  0  0  0  0
  -19.4253  -11.7084   -4.2903 H   0  0  0  0  0
  -17.9258  -10.6581   -6.7582 H   0  0  0  0  0
  -19.5943  -11.2775   -6.7559 H   0  0  0  0  0
  -17.2049  -12.9967   -5.8602 H   0  0  0  0  0
  -18.7518  -14.8748   -6.4942 H   0  0  0  0  0
  -20.0339  -13.7033   -6.9282 H   0  0  0  0  0
  -19.4870  -13.8541   -5.2288 H   0  0  0  0  0
  -17.1501  -13.8507   -8.2203 H   0  0  0  0  0
  -16.7756  -12.1040   -8.1700 H   0  0  0  0  0
  -18.3931  -12.6571   -8.7052 H   0  0  0  0  0
  -18.0904  -12.3489   -2.7359 H   0  0  0  0  0
  -15.4893  -10.9887   -2.2899 H   0  0  0  0  0
  -15.1746  -12.6602   -0.5056 H   0  0  0  0  0
  -16.6315  -13.5440   -1.0427 H   0  0  0  0  0
  -18.0426  -11.5317   -0.6123 H   0  0  0  0  0
  -17.1476   -9.6075    0.7476 H   0  0  0  0  0
  -16.4845   -9.6305   -0.9023 H   0  0  0  0  0
  -15.4784  -10.1930    0.4707 H   0  0  0  0  0
  -17.9719  -11.6300    1.8706 H   0  0  0  0  0
  -16.3288  -12.3451    1.8282 H   0  0  0  0  0
  -17.7257  -13.2561    1.1728 H   0  0  0  0  0
  -13.5821  -11.4587   -3.0797 H   0  0  0  0  0
  -13.3707  -13.9494   -4.8233 H   0  0  0  0  0
  -12.0734  -14.0242   -2.6407 H   0  0  0  0  0
  -11.1314  -12.6075   -3.1957 H   0  0  0  0  0
  -11.5663  -12.4923   -5.9754 H   0  0  0  0  0
  -12.1916  -11.1057   -5.0593 H   0  0  0  0  0
  -14.4411  -11.4160   -6.1507 H   0  0  0  0  0
  -14.5027  -13.0046   -8.1874 H   0  0  0  0  0
  -14.5025  -13.8292   -6.6127 H   0  0  0  0  0
  -12.9976  -13.7514   -7.5887 H   0  0  0  0  0
  -13.7181  -10.6223   -8.4180 H   0  0  0  0  0
  -12.0534  -11.2159   -8.1249 H   0  0  0  0  0
  -12.7180   -9.8718   -7.1408 H   0  0  0  0  0
  -10.1904  -14.6871   -3.7296 H   0  0  0  0  0
  1  2  2  0  0  0
  1  3  1  0  0  0
  1 11  1  0  0  0
  3  4  1  0  0  0
  4  5  1  0  0  0
  4 35  1  0  0  0
  4 36  1  0  0  0
  5  6  2  0  0  0
  5 10  1  0  0  0
  6  7  1  0  0  0
  6 37  1  0  0  0
  7  8  2  0  0  0
  7 38  1  0  0  0
  8  9  1  0  0  0
  8 39  1  0  0  0
  9 10  2  0  0  0
  9 40  1  0  0  0
 10 41  1  0  0  0
 11 12  1  0  0  0
 11 42  1  0  0  0
 12 13  1  0  0  0
 12 15  1  0  0  0
 12 43  1  0  0  0
 13 14  2  0  0  0
 13 19  1  0  0  0
 15 16  1  0  0  0
 15 44  1  0  0  0
 15 45  1  0  0  0
 16 17  1  0  0  0
 16 18  1  0  0  0
 16 46  1  0  0  0
 17 47  1  0  0  0
 17 48  1  0  0  0
 17 49  1  0  0  0
 18 50  1  0  0  0
 18 51  1  0  0  0
 18 52  1  0  0  0
 19 20  1  0  0  0
 19 53  1  0  0  0
 20 21  1  0  0  0
 20 23  1  0  0  0
 20 54  1  0  0  0
 21 22  2  0  0  0
 21 27  1  0  0  0
 23 24  1  0  0  0
 23 55  1  0  0  0
 23 56  1  0  0  0
 24 25  1  0  0  0
 24 26  1  0  0  0
 24 57  1  0  0  0
 25 58  1  0  0  0
 25 59  1  0  0  0
 25 60  1  0  0  0
 26 61  1  0  0  0
 26 62  1  0  0  0
 26 63  1  0  0  0
 27 28  1  0  0  0
 27 64  1  0  0  0
 28 29  1  0  0  0
 28 30  1  0  0  0
 28 65  1  0  0  0
 29 34  1  0  0  0
 29 66  1  0  0  0
 29 67  1  0  0  0
 30 31  1  0  0  0
 30 68  1  0  0  0
 30 69  1  0  0  0
 31 32  1  0  0  0
 31 33  1  0  0  0
 31 70  1  0  0  0
 32 71  1  0  0  0
 32 72  1  0  0  0
 32 73  1  0  0  0
 33 74  1  0  0  0
 33 75  1  0  0  0
 33 76  1  0  0  0
 34 77  1  0  0  0
M  END
$$$$
