@<TRIPOS>MOLECULE
EDO_1_A_405
 10 9 0 0 0
SMALL
NO_CHARGES

@<TRIPOS>ATOM
      1 C1         25.5880   -8.4620  -37.3380 C.3    405  EDO405      0.0000
      2 O1         26.1340   -9.6160  -37.9940 O.3    405  EDO405      0.0000
      3 C2         25.6380   -7.2890  -38.3070 C.3    405  EDO405      0.0000
      4 O2         24.5750   -7.4670  -39.2470 O.3    405  EDO405      0.0000
      5 H          26.2041   -8.2446  -36.4411 H      405  EDO405      0.0000
      6 H          24.5550   -8.6671  -36.9881 H      405  EDO405      0.0000
      7 H          25.5962   -9.7689  -38.7620 H      405  EDO405      0.0000
      8 H          26.6157   -7.2321  -38.8292 H      405  EDO405      0.0000
      9 H          25.4872   -6.3342  -37.7602 H      405  EDO405      0.0000
     10 H          24.5880   -6.7360  -39.8499 H      405  EDO405      0.0000
@<TRIPOS>BOND
     1     1     2    1
     2     1     3    1
     3     1     5    1
     4     1     6    1
     5     2     7    1
     6     3     4    1
     7     3     8    1
     8     3     9    1
     9     4    10    1

