EDO_1_A_401
  -ISIS-            3D

 10  9  0  0  0  0  0  0  0  0  1 V2000
   21.9910    0.1320  -44.0850 C   0  0  0  0  0
   23.3470   -0.3390  -44.0390 O   0  0  0  0  0
   21.8000    1.3920  -43.2440 C   0  0  0  0  0
   20.4740    1.8940  -43.4490 O   0  0  0  0  0
   21.3022   -0.6715  -43.7480 H   0  0  0  0  0
   21.7376    0.3476  -45.1441 H   0  0  0  0  0
   23.4618   -0.8400  -43.2424 H   0  0  0  0  0
   22.5386    2.1664  -43.5409 H   0  0  0  0  0
   21.9546    1.1698  -42.1673 H   0  0  0  0  0
   20.3882    2.7101  -42.9738 H   0  0  0  0  0
  1  2  1  0  0  0
  1  3  1  0  0  0
  1  5  1  0  0  0
  1  6  1  0  0  0
  2  7  1  0  0  0
  3  4  1  0  0  0
  3  8  1  0  0  0
  3  9  1  0  0  0
  4 10  1  0  0  0
M  END
$$$$
