EDO_1_B_403
  -ISIS-            3D

 10  9  0  0  0  0  0  0  0  0  1 V2000
   17.9180    8.8650  -11.6710 C   0  0  0  0  0
   17.9150    8.3720  -10.3270 O   0  0  0  0  0
   17.1400   10.1740  -11.7440 C   0  0  0  0  0
   17.2790   10.8790  -10.5070 O   0  0  0  0  0
   17.4827    8.1096  -12.3582 H   0  0  0  0  0
   18.9691    9.0363  -11.9880 H   0  0  0  0  0
   18.4356    7.5804  -10.3009 H   0  0  0  0  0
   16.0621    9.9709  -11.9174 H   0  0  0  0  0
   17.4947   10.8094  -12.5808 H   0  0  0  0  0
   17.2356   10.2354   -9.8097 H   0  0  0  0  0
  1  2  1  0  0  0
  1  3  1  0  0  0
  1  5  1  0  0  0
  1  6  1  0  0  0
  2  7  1  0  0  0
  3  4  1  0  0  0
  3  8  1  0  0  0
  3  9  1  0  0  0
  4 10  1  0  0  0
M  END
$$$$
