@<TRIPOS>MOLECULE
EDO_1_A_406
 10 9 0 0 0
SMALL
NO_CHARGES

@<TRIPOS>ATOM
      1 C1         10.8010   -1.1280  -41.1610 C.3    406  EDO406      0.0000
      2 O1         10.3330   -0.1120  -40.2920 O.3    406  EDO406      0.0000
      3 C2          9.6710   -1.6520  -42.0320 C.3    406  EDO406      0.0000
      4 O2          9.9750   -3.0140  -42.3700 O.3    406  EDO406      0.0000
      5 H          11.2433   -1.9455  -40.5520 H      406  EDO406      0.0000
      6 H          11.6184   -0.7212  -41.7914 H      406  EDO406      0.0000
      7 H           9.8712   -0.5199  -39.5717 H      406  EDO406      0.0000
      8 H           9.5337   -1.0366  -42.9453 H      406  EDO406      0.0000
      9 H           8.7098   -1.6430  -41.4776 H      406  EDO406      0.0000
     10 H          10.5499   -3.0139  -43.1245 H      406  EDO406      0.0000
@<TRIPOS>BOND
     1     1     2    1
     2     1     3    1
     3     1     5    1
     4     1     6    1
     5     2     7    1
     6     3     4    1
     7     3     8    1
     8     3     9    1
     9     4    10    1

