@<TRIPOS>MOLECULE
EDO_1_B_403
 10 9 0 0 0
SMALL
NO_CHARGES

@<TRIPOS>ATOM
      1 C1         17.9180    8.8650  -11.6710 C.3    403  EDO403      0.0000
      2 O1         17.9150    8.3720  -10.3270 O.3    403  EDO403      0.0000
      3 C2         17.1400   10.1740  -11.7440 C.3    403  EDO403      0.0000
      4 O2         17.2790   10.8790  -10.5070 O.3    403  EDO403      0.0000
      5 H          17.4827    8.1096  -12.3582 H      403  EDO403      0.0000
      6 H          18.9691    9.0363  -11.9880 H      403  EDO403      0.0000
      7 H          18.4356    7.5804  -10.3009 H      403  EDO403      0.0000
      8 H          16.0621    9.9709  -11.9174 H      403  EDO403      0.0000
      9 H          17.4947   10.8094  -12.5808 H      403  EDO403      0.0000
     10 H          17.2356   10.2354   -9.8097 H      403  EDO403      0.0000
@<TRIPOS>BOND
     1     1     2    1
     2     1     3    1
     3     1     5    1
     4     1     6    1
     5     2     7    1
     6     3     4    1
     7     3     8    1
     8     3     9    1
     9     4    10    1

