@<TRIPOS>MOLECULE
EDO_1_B_405
 10 9 0 0 0
SMALL
NO_CHARGES

@<TRIPOS>ATOM
      1 C1          6.0690    3.8860  -11.9310 C.3    405  EDO405      0.0000
      2 O1          5.0720    3.6350  -10.8790 O.3    405  EDO405      0.0000
      3 C2          7.4420    3.7620  -11.3850 C.3    405  EDO405      0.0000
      4 O2          7.8130    2.3960  -11.5110 O.3    405  EDO405      0.0000
      5 H           5.9130    4.9187  -12.3108 H      405  EDO405      0.0000
      6 H           5.8979    3.2023  -12.7889 H      405  EDO405      0.0000
      7 H           4.2120    3.7309  -11.2659 H      405  EDO405      0.0000
      8 H           7.5153    4.0991  -10.3305 H      405  EDO405      0.0000
      9 H           8.1554    4.3712  -11.9782 H      405  EDO405      0.0000
     10 H           7.2722    1.9001  -10.9089 H      405  EDO405      0.0000
@<TRIPOS>BOND
     1     1     2    1
     2     1     3    1
     3     1     5    1
     4     1     6    1
     5     2     7    1
     6     3     4    1
     7     3     8    1
     8     3     9    1
     9     4    10    1

