@<TRIPOS>MOLECULE
EDO_1_A_408
 10 9 0 0 0
SMALL
NO_CHARGES

@<TRIPOS>ATOM
      1 C1         22.2410   -8.9460   -8.4260 C.3    408  EDO408      0.0000
      2 O1         22.9210   -7.7230   -8.7230 O.3    408  EDO408      0.0000
      3 C2         21.3780   -9.2800   -9.6350 C.3    408  EDO408      0.0000
      4 O2         22.2780   -9.3700  -10.7450 O.3    408  EDO408      0.0000
      5 H          21.6196   -8.8116   -7.5173 H      408  EDO408      0.0000
      6 H          22.9783   -9.7493   -8.2177 H      408  EDO408      0.0000
      7 H          23.3269   -7.8434   -9.5743 H      408  EDO408      0.0000
      8 H          20.6190   -8.4908   -9.8186 H      408  EDO408      0.0000
      9 H          20.8503  -10.2457   -9.4901 H      408  EDO408      0.0000
     10 H          21.7722   -9.5848  -11.5172 H      408  EDO408      0.0000
@<TRIPOS>BOND
     1     1     2    1
     2     1     3    1
     3     1     5    1
     4     1     6    1
     5     2     7    1
     6     3     4    1
     7     3     8    1
     8     3     9    1
     9     4    10    1

