EDO_1_A_407
  -ISIS-            3D

 10  9  0  0  0  0  0  0  0  0  1 V2000
   -3.3660  -12.7580  -15.4360 C   0  0  0  0  0
   -3.3850  -12.2510  -14.0940 O   0  0  0  0  0
   -3.7560  -14.2320  -15.4060 C   0  0  0  0  0
   -5.0960  -14.3590  -14.9140 O   0  0  0  0  0
   -2.3467  -12.6415  -15.8612 H   0  0  0  0  0
   -4.0628  -12.1728  -16.0720 H   0  0  0  0  0
   -3.1215  -11.3401  -14.1131 H   0  0  0  0  0
   -3.0714  -14.8074  -14.7495 H   0  0  0  0  0
   -3.6906  -14.6758  -16.4216 H   0  0  0  0  0
   -5.6774  -13.8628  -15.4748 H   0  0  0  0  0
  1  2  1  0  0  0
  1  3  1  0  0  0
  1  5  1  0  0  0
  1  6  1  0  0  0
  2  7  1  0  0  0
  3  4  1  0  0  0
  3  8  1  0  0  0
  3  9  1  0  0  0
  4 10  1  0  0  0
M  END
$$$$
