EDO_1_B_405
  -ISIS-            3D

 10  9  0  0  0  0  0  0  0  0  1 V2000
    6.0690    3.8860  -11.9310 C   0  0  0  0  0
    5.0720    3.6350  -10.8790 O   0  0  0  0  0
    7.4420    3.7620  -11.3850 C   0  0  0  0  0
    7.8130    2.3960  -11.5110 O   0  0  0  0  0
    5.9130    4.9187  -12.3108 H   0  0  0  0  0
    5.8979    3.2023  -12.7889 H   0  0  0  0  0
    4.2120    3.7309  -11.2659 H   0  0  0  0  0
    7.5153    4.0991  -10.3305 H   0  0  0  0  0
    8.1554    4.3712  -11.9782 H   0  0  0  0  0
    7.2722    1.9001  -10.9089 H   0  0  0  0  0
  1  2  1  0  0  0
  1  3  1  0  0  0
  1  5  1  0  0  0
  1  6  1  0  0  0
  2  7  1  0  0  0
  3  4  1  0  0  0
  3  8  1  0  0  0
  3  9  1  0  0  0
  4 10  1  0  0  0
M  END
$$$$
