@<TRIPOS>MOLECULE
EDO_1_A_409
 10 9 0 0 0
SMALL
NO_CHARGES

@<TRIPOS>ATOM
      1 C1         18.4580   10.5070  -33.4070 C.3    409  EDO409      0.0000
      2 O1         18.7600   11.5130  -34.3780 O.3    409  EDO409      0.0000
      3 C2         16.9620   10.2120  -33.4230 C.3    409  EDO409      0.0000
      4 O2         16.4860    9.9890  -32.0890 O.3    409  EDO409      0.0000
      5 H          18.7842   10.8563  -32.4044 H      409  EDO409      0.0000
      6 H          19.0399    9.5903  -33.6344 H      409  EDO409      0.0000
      7 H          18.6082   12.3623  -33.9844 H      409  EDO409      0.0000
      8 H          16.7472    9.3261  -34.0570 H      409  EDO409      0.0000
      9 H          16.4020   11.0678  -33.8563 H      409  EDO409      0.0000
     10 H          15.5666    9.7623  -32.1358 H      409  EDO409      0.0000
@<TRIPOS>BOND
     1     1     2    1
     2     1     3    1
     3     1     5    1
     4     1     6    1
     5     2     7    1
     6     3     4    1
     7     3     8    1
     8     3     9    1
     9     4    10    1

