@<TRIPOS>MOLECULE
EDO_1_A_401
 10 9 0 0 0
SMALL
NO_CHARGES

@<TRIPOS>ATOM
      1 C1         21.9910    0.1320  -44.0850 C.3    401  EDO401      0.0000
      2 O1         23.3470   -0.3390  -44.0390 O.3    401  EDO401      0.0000
      3 C2         21.8000    1.3920  -43.2440 C.3    401  EDO401      0.0000
      4 O2         20.4740    1.8940  -43.4490 O.3    401  EDO401      0.0000
      5 H          21.3022   -0.6715  -43.7480 H      401  EDO401      0.0000
      6 H          21.7376    0.3476  -45.1441 H      401  EDO401      0.0000
      7 H          23.4618   -0.8400  -43.2424 H      401  EDO401      0.0000
      8 H          22.5386    2.1664  -43.5409 H      401  EDO401      0.0000
      9 H          21.9546    1.1698  -42.1673 H      401  EDO401      0.0000
     10 H          20.3882    2.7101  -42.9738 H      401  EDO401      0.0000
@<TRIPOS>BOND
     1     1     2    1
     2     1     3    1
     3     1     5    1
     4     1     6    1
     5     2     7    1
     6     3     4    1
     7     3     8    1
     8     3     9    1
     9     4    10    1

