EDO_1_A_409
  -ISIS-            3D

 10  9  0  0  0  0  0  0  0  0  1 V2000
   18.4580   10.5070  -33.4070 C   0  0  0  0  0
   18.7600   11.5130  -34.3780 O   0  0  0  0  0
   16.9620   10.2120  -33.4230 C   0  0  0  0  0
   16.4860    9.9890  -32.0890 O   0  0  0  0  0
   18.7842   10.8563  -32.4044 H   0  0  0  0  0
   19.0399    9.5903  -33.6344 H   0  0  0  0  0
   18.6082   12.3623  -33.9844 H   0  0  0  0  0
   16.7472    9.3261  -34.0570 H   0  0  0  0  0
   16.4020   11.0678  -33.8563 H   0  0  0  0  0
   15.5666    9.7623  -32.1358 H   0  0  0  0  0
  1  2  1  0  0  0
  1  3  1  0  0  0
  1  5  1  0  0  0
  1  6  1  0  0  0
  2  7  1  0  0  0
  3  4  1  0  0  0
  3  8  1  0  0  0
  3  9  1  0  0  0
  4 10  1  0  0  0
M  END
$$$$
