@<TRIPOS>MOLECULE
MLI_1_A_201
 9 8 0 0 0
SMALL
NO_CHARGES

@<TRIPOS>ATOM
      1 C1        -35.2470   30.5360  -12.4360 C.3    201  MLI201      0.0000
      2 C2        -35.0730   29.1000  -11.9260 C.2    201  MLI201      0.0000
      3 C3        -34.1920   31.2150  -13.3780 C.2    201  MLI201      0.0000
      4 O6        -35.6400   28.0590  -12.4180 O.co2  201  MLI201     -0.5000
      5 O7        -34.3070   29.0310  -10.9170 O.co2  201  MLI201     -0.5000
      6 O8        -34.2700   31.2270  -14.6260 O.co2  201  MLI201     -0.5000
      7 O9        -33.2120   31.7780  -12.7810 O.co2  201  MLI201     -0.5000
      8 H         -35.3842   31.2012  -11.5513 H      201  MLI201      0.0000
      9 H         -36.2245   30.5739  -12.9714 H      201  MLI201      0.0000
@<TRIPOS>BOND
     1     1     2    1
     2     1     3    1
     3     1     8    1
     4     1     9    1
     5     2     4   ar
     6     2     5   ar
     7     3     6   ar
     8     3     7   ar

