@<TRIPOS>MOLECULE
MLI_1_A_202
 9 8 0 0 0
SMALL
NO_CHARGES

@<TRIPOS>ATOM
      1 C1        -56.1020   44.5200   -5.8190 C.3    202  MLI202      0.0000
      2 C2        -57.3400   44.8260   -6.7420 C.2    202  MLI202      0.0000
      3 C3        -54.6600   45.1920   -5.9400 C.2    202  MLI202      0.0000
      4 O6        -57.5180   43.9880   -7.7120 O.co2  202  MLI202     -0.5000
      5 O7        -58.1480   45.7970   -6.5530 O.co2  202  MLI202     -0.5000
      6 O8        -53.7990   44.5310   -6.6600 O.co2  202  MLI202     -0.5000
      7 O9        -54.3160   46.2940   -5.4100 O.co2  202  MLI202     -0.5000
      8 H         -55.9415   43.4165   -5.8472 H      202  MLI202      0.0000
      9 H         -56.4420   44.7242   -4.7763 H      202  MLI202      0.0000
@<TRIPOS>BOND
     1     1     2    1
     2     1     3    1
     3     1     8    1
     4     1     9    1
     5     2     4   ar
     6     2     5   ar
     7     3     6   ar
     8     3     7   ar

