DMS_1_A_1002
  -ISIS-            3D

 10  9  0  0  0  0  0  0  0  0  1 V2000
    7.1770  -28.0620   21.5640 S   0  0  0  0  0
    7.7920  -26.9570   22.2730 O   0  0  0  0  0
    5.8240  -28.5800   22.5750 C   0  0  0  0  0
    6.2080  -27.3340   20.2600 C   0  0  0  0  0
    5.2100  -29.3263   22.0306 H   0  0  0  0  0
    5.1901  -27.7129   22.8527 H   0  0  0  0  0
    6.2160  -29.0494   23.5005 H   0  0  0  0  0
    5.5871  -28.1131   19.7723 H   0  0  0  0  0
    6.8874  -26.8929   19.5021 H   0  0  0  0  0
    5.5512  -26.5359   20.6631 H   0  0  0  0  0
  1  2  2  0  0  0
  1  3  1  0  0  0
  1  4  1  0  0  0
  3  5  1  0  0  0
  3  6  1  0  0  0
  3  7  1  0  0  0
  4  8  1  0  0  0
  4  9  1  0  0  0
  4 10  1  0  0  0
M  END
$$$$
