@<TRIPOS>MOLECULE
DMS_2_A_1003
 10 9 0 0 0
SMALL
NO_CHARGES

@<TRIPOS>ATOM
      1 S          -6.1950   -0.9310    6.2720 S.o   1003  DMS1003      0.0000
      2 O          -7.1120   -0.7120    7.3950 O.2   1003  DMS1003      0.0000
      3 C1         -7.2630   -1.0750    4.8570 C.3   1003  DMS1003      0.0000
      4 C2         -5.6820   -2.6070    6.4150 C.3   1003  DMS1003      0.0000
      5 H          -6.6740   -1.3992    3.9748 H     1003  DMS1003      0.0000
      6 H          -7.7207   -0.0883    4.6396 H     1003  DMS1003      0.0000
      7 H          -8.0680   -1.8127    5.0536 H     1003  DMS1003      0.0000
      8 H          -5.1152   -2.9052    5.5095 H     1003  DMS1003      0.0000
      9 H          -6.5609   -3.2736    6.5336 H     1003  DMS1003      0.0000
     10 H          -5.0235   -2.7173    7.3008 H     1003  DMS1003      0.0000
@<TRIPOS>BOND
     1     1     2    2
     2     1     3    1
     3     1     4    1
     4     3     5    1
     5     3     6    1
     6     3     7    1
     7     4     8    1
     8     4     9    1
     9     4    10    1

