@<TRIPOS>MOLECULE
DMS_2_A_1004
 10 9 0 0 0
SMALL
NO_CHARGES

@<TRIPOS>ATOM
      1 S          -2.4300  -18.9250   -8.1400 S.o   1004  DMS1004      0.0000
      2 O          -3.7090  -18.7680   -8.8760 O.2   1004  DMS1004      0.0000
      3 C1         -1.2380  -18.0340   -9.0830 C.3   1004  DMS1004      0.0000
      4 C2         -1.8830  -20.5320   -8.6550 C.3   1004  DMS1004      0.0000
      5 H          -0.2160  -18.2665   -8.7198 H     1004  DMS1004      0.0000
      6 H          -1.4166  -16.9457   -8.9625 H     1004  DMS1004      0.0000
      7 H          -1.3147  -18.2907  -10.1595 H     1004  DMS1004      0.0000
      8 H          -0.8410  -20.7037   -8.3155 H     1004  DMS1004      0.0000
      9 H          -1.9327  -20.6302   -9.7588 H     1004  DMS1004      0.0000
     10 H          -2.5355  -21.3038   -8.1973 H     1004  DMS1004      0.0000
@<TRIPOS>BOND
     1     1     2    2
     2     1     3    1
     3     1     4    1
     4     3     5    1
     5     3     6    1
     6     3     7    1
     7     4     8    1
     8     4     9    1
     9     4    10    1

