DMS_1_A_1005
  -ISIS-            3D

 10  9  0  0  0  0  0  0  0  0  1 V2000
   21.0590   14.6200    7.9070 S   0  0  0  0  0
   22.5340   14.6830    8.0110 O   0  0  0  0  0
   20.6100   13.3180    8.9980 C   0  0  0  0  0
   20.7690   13.6920    6.4440 C   0  0  0  0  0
   19.5418   13.0541    8.8575 H   0  0  0  0  0
   20.7535   13.6535   10.0456 H   0  0  0  0  0
   21.2377   12.4199    8.8241 H   0  0  0  0  0
   19.6963   13.4190    6.3720 H   0  0  0  0  0
   21.3860   12.7701    6.4296 H   0  0  0  0  0
   21.0338   14.3096    5.5613 H   0  0  0  0  0
  1  2  2  0  0  0
  1  3  1  0  0  0
  1  4  1  0  0  0
  3  5  1  0  0  0
  3  6  1  0  0  0
  3  7  1  0  0  0
  4  8  1  0  0  0
  4  9  1  0  0  0
  4 10  1  0  0  0
M  END
$$$$
