DMS_1_A_1004
  -ISIS-            3D

 10  9  0  0  0  0  0  0  0  0  1 V2000
    2.4300  -18.9250    8.1400 S   0  0  0  0  0
    3.7090  -18.7680    8.8760 O   0  0  0  0  0
    1.2380  -18.0340    9.0830 C   0  0  0  0  0
    1.8830  -20.5320    8.6550 C   0  0  0  0  0
    0.2160  -18.2665    8.7198 H   0  0  0  0  0
    1.4166  -16.9457    8.9625 H   0  0  0  0  0
    1.3147  -18.2907   10.1595 H   0  0  0  0  0
    0.8410  -20.7037    8.3155 H   0  0  0  0  0
    1.9327  -20.6302    9.7588 H   0  0  0  0  0
    2.5355  -21.3038    8.1973 H   0  0  0  0  0
  1  2  2  0  0  0
  1  3  1  0  0  0
  1  4  1  0  0  0
  3  5  1  0  0  0
  3  6  1  0  0  0
  3  7  1  0  0  0
  4  8  1  0  0  0
  4  9  1  0  0  0
  4 10  1  0  0  0
M  END
$$$$
