@<TRIPOS>MOLECULE
DMS_1_A_403
 10 9 0 0 0
SMALL
NO_CHARGES

@<TRIPOS>ATOM
      1 S           2.4460  -18.9770    8.1140 S.o    403  DMS403      0.0000
      2 O           3.7380  -18.8150    8.9150 O.2    403  DMS403      0.0000
      3 C1          1.2000  -18.0840    9.0170 C.3    403  DMS403      0.0000
      4 C2          1.8730  -20.6110    8.5050 C.3    403  DMS403      0.0000
      5 H           0.1995  -18.2949    8.5870 H      403  DMS403      0.0000
      6 H           1.4010  -16.9960    8.9382 H      403  DMS403      0.0000
      7 H           1.2125  -18.3763   10.0871 H      403  DMS403      0.0000
      8 H           0.8545  -20.7620    8.0923 H      403  DMS403      0.0000
      9 H           1.8530  -20.7630    9.6037 H      403  DMS403      0.0000
     10 H           2.5565  -21.3571    8.0504 H      403  DMS403      0.0000
@<TRIPOS>BOND
     1     1     2    2
     2     1     3    1
     3     1     4    1
     4     3     5    1
     5     3     6    1
     6     3     7    1
     7     4     8    1
     8     4     9    1
     9     4    10    1

