@<TRIPOS>MOLECULE
DMS_2_A_401
 10 9 0 0 0
SMALL
NO_CHARGES

@<TRIPOS>ATOM
      1 S          -6.9250  -27.9910  -21.5820 S.o    401  DMS401      0.0000
      2 O          -7.6840  -27.0770  -22.4450 O.2    401  DMS401      0.0000
      3 C1         -5.6710  -28.7350  -22.6110 C.3    401  DMS401      0.0000
      4 C2         -5.8850  -26.9600  -20.6090 C.3    401  DMS401      0.0000
      5 H          -4.9719  -29.3245  -21.9832 H      401  DMS401      0.0000
      6 H          -5.1068  -27.9523  -23.1586 H      401  DMS401      0.0000
      7 H          -6.1539  -29.4130  -23.3440 H      401  DMS401      0.0000
      8 H          -5.1769  -27.5829  -20.0249 H      401  DMS401      0.0000
      9 H          -6.5059  -26.3706  -19.9038 H      401  DMS401      0.0000
     10 H          -5.3138  -26.2624  -21.2557 H      401  DMS401      0.0000
@<TRIPOS>BOND
     1     1     2    2
     2     1     3    1
     3     1     4    1
     4     3     5    1
     5     3     6    1
     6     3     7    1
     7     4     8    1
     8     4     9    1
     9     4    10    1

