@<TRIPOS>MOLECULE
EDO_2_A_401
 10 9 0 0 0
SMALL
NO_CHARGES

@<TRIPOS>ATOM
      1 C1        -16.4090  -27.6370  -47.3890 C.3    401  EDO401      0.0000
      2 O1        -17.4940  -27.9440  -46.5060 O.3    401  EDO401      0.0000
      3 C2        -15.1410  -28.2400  -46.8070 C.3    401  EDO401      0.0000
      4 O2        -14.0890  -27.2750  -46.8070 O.3    401  EDO401      0.0000
      5 H         -16.3160  -26.5342  -47.4810 H      401  EDO401      0.0000
      6 H         -16.6151  -28.0425  -48.4015 H      401  EDO401      0.0000
      7 H         -18.2710  -27.5077  -46.8302 H      401  EDO401      0.0000
      8 H         -14.8313  -29.1318  -47.3915 H      401  EDO401      0.0000
      9 H         -15.3131  -28.5795  -45.7634 H      401  EDO401      0.0000
     10 H         -13.3355  -27.6575  -46.3775 H      401  EDO401      0.0000
@<TRIPOS>BOND
     1     1     2    1
     2     1     3    1
     3     1     5    1
     4     1     6    1
     5     2     7    1
     6     3     4    1
     7     3     8    1
     8     3     9    1
     9     4    10    1

