@<TRIPOS>MOLECULE
EDO_2_A_403
 10 9 0 0 0
SMALL
NO_CHARGES

@<TRIPOS>ATOM
      1 C1          8.9320  -36.3050   -7.4380 C.3    403  EDO403      0.0000
      2 O1          9.3450  -35.0960   -6.7930 O.3    403  EDO403      0.0000
      3 C2          7.6500  -36.0420   -8.2100 C.3    403  EDO403      0.0000
      4 O2          6.6440  -35.6190   -7.2840 O.3    403  EDO403      0.0000
      5 H           8.7704  -37.0882   -6.6685 H      403  EDO403      0.0000
      6 H           9.7329  -36.6721   -8.1142 H      403  EDO403      0.0000
      7 H           9.9337  -34.6300   -7.3721 H      403  EDO403      0.0000
      8 H           7.3049  -36.9618   -8.7253 H      403  EDO403      0.0000
      9 H           7.7991  -35.2610   -8.9845 H      403  EDO403      0.0000
     10 H           7.0545  -34.9812   -6.7109 H      403  EDO403      0.0000
@<TRIPOS>BOND
     1     1     2    1
     2     1     3    1
     3     1     5    1
     4     1     6    1
     5     2     7    1
     6     3     4    1
     7     3     8    1
     8     3     9    1
     9     4    10    1

