@<TRIPOS>MOLECULE
EDO_1_A_403
 10 9 0 0 0
SMALL
NO_CHARGES

@<TRIPOS>ATOM
      1 C1         -8.9320  -27.1560   -7.4380 C.3    403  EDO403      0.0000
      2 O1         -9.3450  -28.3650   -6.7930 O.3    403  EDO403      0.0000
      3 C2         -7.6500  -27.4190   -8.2100 C.3    403  EDO403      0.0000
      4 O2         -6.6440  -27.8420   -7.2840 O.3    403  EDO403      0.0000
      5 H          -8.7707  -26.3727   -6.6685 H      403  EDO403      0.0000
      6 H          -9.7328  -26.7892   -8.1145 H      403  EDO403      0.0000
      7 H          -9.9356  -28.8300   -7.3712 H      403  EDO403      0.0000
      8 H          -7.3047  -26.4996   -8.7259 H      403  EDO403      0.0000
      9 H          -7.7994  -28.2005   -8.9840 H      403  EDO403      0.0000
     10 H          -7.0552  -28.4779   -6.7094 H      403  EDO403      0.0000
@<TRIPOS>BOND
     1     1     2    1
     2     1     3    1
     3     1     5    1
     4     1     6    1
     5     2     7    1
     6     3     4    1
     7     3     8    1
     8     3     9    1
     9     4    10    1

