@<TRIPOS>MOLECULE
DMS_1_A_402
 10 9 0 0 0
SMALL
NO_CHARGES

@<TRIPOS>ATOM
      1 S           6.0810   -1.0230   -6.1810 S.o    402  DMS402      0.0000
      2 O           7.0180   -0.7870   -7.3120 O.2    402  DMS402      0.0000
      3 C1          7.0660   -0.9830   -4.7060 C.3    402  DMS402      0.0000
      4 C2          5.7430   -2.7540   -6.1520 C.3    402  DMS402      0.0000
      5 H           6.4537   -1.2912   -3.8339 H      402  DMS402      0.0000
      6 H           7.4302    0.0512   -4.5376 H      402  DMS402      0.0000
      7 H           7.9394   -1.6601   -4.8029 H      402  DMS402      0.0000
      8 H           5.1655   -3.0121   -5.2408 H      402  DMS402      0.0000
      9 H           6.6872   -3.3361   -6.1682 H      402  DMS402      0.0000
     10 H           5.1401   -3.0244   -7.0430 H      402  DMS402      0.0000
@<TRIPOS>BOND
     1     1     2    2
     2     1     3    1
     3     1     4    1
     4     3     5    1
     5     3     6    1
     6     3     7    1
     7     4     8    1
     8     4     9    1
     9     4    10    1

