DMS_2_A_403
  -ISIS-            3D

 10  9  0  0  0  0  0  0  0  0  1 V2000
   -2.4880  -18.8080   -8.0760 S   0  0  0  0  0
   -3.6990  -18.7350   -8.9820 O   0  0  0  0  0
   -1.1100  -18.2540   -9.0570 C   0  0  0  0  0
   -2.0470  -20.5230   -8.0430 C   0  0  0  0  0
   -0.1614  -18.4378   -8.5122 H   0  0  0  0  0
   -1.2094  -17.1651   -9.2440 H   0  0  0  0  0
   -1.0875  -18.7861  -10.0302 H   0  0  0  0  0
   -1.0730  -20.6525   -7.5283 H   0  0  0  0  0
   -1.9766  -20.9269   -9.0738 H   0  0  0  0  0
   -2.8217  -21.0896   -7.4868 H   0  0  0  0  0
  1  2  2  0  0  0
  1  3  1  0  0  0
  1  4  1  0  0  0
  3  5  1  0  0  0
  3  6  1  0  0  0
  3  7  1  0  0  0
  4  8  1  0  0  0
  4  9  1  0  0  0
  4 10  1  0  0  0
M  END
$$$$
