@<TRIPOS>MOLECULE
DMS_1_A_403
 10 9 0 0 0
SMALL
NO_CHARGES

@<TRIPOS>ATOM
      1 S           2.4880  -18.8080    8.0760 S.o    403  DMS403      0.0000
      2 O           3.6990  -18.7350    8.9820 O.2    403  DMS403      0.0000
      3 C1          1.1100  -18.2540    9.0570 C.3    403  DMS403      0.0000
      4 C2          2.0470  -20.5230    8.0430 C.3    403  DMS403      0.0000
      5 H           0.1614  -18.4378    8.5122 H      403  DMS403      0.0000
      6 H           1.2094  -17.1651    9.2440 H      403  DMS403      0.0000
      7 H           1.0875  -18.7861   10.0302 H      403  DMS403      0.0000
      8 H           1.0730  -20.6525    7.5283 H      403  DMS403      0.0000
      9 H           1.9766  -20.9269    9.0738 H      403  DMS403      0.0000
     10 H           2.8217  -21.0896    7.4868 H      403  DMS403      0.0000
@<TRIPOS>BOND
     1     1     2    2
     2     1     3    1
     3     1     4    1
     4     3     5    1
     5     3     6    1
     6     3     7    1
     7     4     8    1
     8     4     9    1
     9     4    10    1

