@<TRIPOS>MOLECULE
DMS_2_A_405
 10 9 0 0 0
SMALL
NO_CHARGES

@<TRIPOS>ATOM
      1 S          -6.5400    0.2630  -18.0700 S.o    405  DMS405      0.0000
      2 O          -6.6430    1.3810  -17.0870 O.2    405  DMS405      0.0000
      3 C1         -7.2370    0.8500  -19.5880 C.3    405  DMS405      0.0000
      4 C2         -4.8590    0.2270  -18.5870 C.3    405  DMS405      0.0000
      5 H          -7.0577    0.1118  -20.3962 H      405  DMS405      0.0000
      6 H          -6.7869    1.8240  -19.8705 H      405  DMS405      0.0000
      7 H          -8.3311    0.9825  -19.4620 H      405  DMS405      0.0000
      8 H          -4.7352   -0.4927  -19.4218 H      405  DMS405      0.0000
      9 H          -4.2205   -0.0979  -17.7401 H      405  DMS405      0.0000
     10 H          -4.5316    1.2343  -18.9174 H      405  DMS405      0.0000
@<TRIPOS>BOND
     1     1     2    2
     2     1     3    1
     3     1     4    1
     4     3     5    1
     5     3     6    1
     6     3     7    1
     7     4     8    1
     8     4     9    1
     9     4    10    1

