@<TRIPOS>MOLECULE
DHF_1_A_428
 49 51 0 0 0
SMALL
NO_CHARGES

@<TRIPOS>ATOM
      1 N1         73.8990  -23.1820   43.5760 N.ar   428  DHF428      0.0000
      2 C2         75.1660  -22.8990   43.3450 C.ar   428  DHF428      0.0000
      3 NA2        75.8840  -23.6940   42.5860 N.pl3  428  DHF428      0.0000
      4 N3         75.7730  -21.8310   43.8550 N.ar   428  DHF428      0.0000
      5 C4         75.1520  -20.9530   44.6100 C.ar   428  DHF428      0.0000
      6 O4         75.7370  -19.9990   45.0310 O.2    428  DHF428      0.0000
      7 C4A        73.7510  -21.1890   44.8980 C.ar   428  DHF428      0.0000
      8 N5         73.0250  -20.3810   45.6380 N.ar   428  DHF428      0.0000
      9 C6         71.7560  -20.6830   45.8470 C.ar   428  DHF428      0.0000
     10 C7         71.2050  -21.8180   45.3020 C.ar   428  DHF428      0.0000
     11 N8         71.9020  -22.6300   44.5480 N.ar   428  DHF428      0.0000
     12 C8A        73.1670  -22.3810   44.3100 C.ar   428  DHF428      0.0000
     13 C9         70.8680  -19.8200   46.6840 C.3    428  DHF428      0.0000
     14 N10        71.4740  -18.5550   46.9690 N.pl3  428  DHF428      0.0000
     15 C11        69.0410  -15.6860   48.6150 C.ar   428  DHF428      0.0000
     16 C12        70.3260  -15.3670   48.2170 C.ar   428  DHF428      0.0000
     17 C13        71.1520  -16.3260   47.6640 C.ar   428  DHF428      0.0000
     18 C14        70.7040  -17.6150   47.5050 C.ar   428  DHF428      0.0000
     19 C15        69.4270  -17.9510   47.8990 C.ar   428  DHF428      0.0000
     20 C16        68.6080  -16.9910   48.4520 C.ar   428  DHF428      0.0000
     21 C          68.1380  -14.6590   49.2540 C.2    428  DHF428      0.0000
     22 O          68.5520  -13.5370   49.4760 O.2    428  DHF428      0.0000
     23 N          66.8990  -14.9540   49.6240 N.am   428  DHF428      0.0000
     24 CA         65.8280  -14.0760   49.1750 C.3    428  DHF428      0.0000
     25 CB         64.4600  -14.7710   49.1470 C.3    428  DHF428      0.0000
     26 CG         63.6970  -14.5530   47.8420 C.3    428  DHF428      0.0000
     27 CD         62.2110  -14.8670   47.9490 C.2    428  DHF428      0.0000
     28 OE1        61.4030  -13.9250   47.9220 O.co2  428  DHF428     -0.5000
     29 OE2        61.8120  -16.0460   48.0370 O.co2  428  DHF428     -0.5000
     30 CT         65.7140  -12.7920   49.9480 C.2    428  DHF428      0.0000
     31 O1         65.1060  -12.7930   51.0430 O.co2  428  DHF428     -0.5000
     32 O2         66.2150  -11.7630   49.4550 O.co2  428  DHF428     -0.5000
     33 H          70.1475  -22.0739   45.4809 H      428  DHF428      0.0000
     34 H          70.6390  -20.3811   47.6205 H      428  DHF428      0.0000
     35 H          69.9244  -19.6943   46.1018 H      428  DHF428      0.0000
     36 H          72.4598  -18.3347   46.7717 H      428  DHF428      0.0000
     37 H          70.7027  -14.3381   48.3421 H      428  DHF428      0.0000
     38 H          72.1724  -16.0481   47.3512 H      428  DHF428      0.0000
     39 H          69.0046  -18.9626   47.8106 H      428  DHF428      0.0000
     40 H          67.5944  -17.2943   48.7595 H      428  DHF428      0.0000
     41 H          66.6844  -15.8800   50.0171 H      428  DHF428      0.0000
     42 H          66.0548  -13.7883   48.1178 H      428  DHF428      0.0000
     43 H          63.8280  -14.4492   50.0042 H      428  DHF428      0.0000
     44 H          64.5926  -15.8696   49.2814 H      428  DHF428      0.0000
     45 H          64.1508  -15.1681   47.0310 H      428  DHF428      0.0000
     46 H          63.8068  -13.4895   47.5258 H      428  DHF428      0.0000
     47 H          76.8721  -23.4814   42.4032 H      428  DHF428      0.0000
     48 H          75.3754  -24.5060   42.2165 H      428  DHF428      0.0000
     49 H          76.7651  -21.7184   43.6211 H      428  DHF428      0.0000
@<TRIPOS>BOND
     1     1     2   ar
     2     1    12   ar
     3     2     3    1
     4     2     4   ar
     5     3    47    1
     6     3    48    1
     7     4     5   ar
     8     4    49    1
     9     5     6    2
    10     5     7   ar
    11     7     8   ar
    12     7    12   ar
    13     8     9   ar
    14     9    10   ar
    15     9    13    1
    16    10    11   ar
    17    10    33    1
    18    11    12   ar
    19    13    14    1
    20    13    34    1
    21    13    35    1
    22    14    18    1
    23    14    36    1
    24    15    16   ar
    25    15    20   ar
    26    15    21    1
    27    16    17   ar
    28    16    37    1
    29    17    18   ar
    30    17    38    1
    31    18    19   ar
    32    19    20   ar
    33    19    39    1
    34    20    40    1
    35    21    22    2
    36    21    23    1
    37    23    24    1
    38    23    41    1
    39    24    25    1
    40    24    30    1
    41    24    42    1
    42    25    26    1
    43    25    43    1
    44    25    44    1
    45    26    27    1
    46    26    45    1
    47    26    46    1
    48    27    28   ar
    49    27    29   ar
    50    30    31   ar
    51    30    32   ar

