@<TRIPOS>MOLECULE
DMS_1_A_502
 10 9 0 0 0
SMALL
NO_CHARGES

@<TRIPOS>ATOM
      1 S          -4.1950   14.3610    0.5320 S.o    502  DMS502      0.0000
      2 O          -4.5700   14.8460   -0.8030 O.2    502  DMS502      0.0000
      3 C1         -3.8770   15.8340    1.4250 C.3    502  DMS502      0.0000
      4 C2         -5.6870   13.9440    1.3610 C.3    502  DMS502      0.0000
      5 H          -3.7283   15.6022    2.4995 H      502  DMS502      0.0000
      6 H          -4.7171   16.5505    1.3168 H      502  DMS502      0.0000
      7 H          -2.9522   16.3074    1.0361 H      502  DMS502      0.0000
      8 H          -5.4830   13.7449    2.4330 H      502  DMS502      0.0000
      9 H          -6.1144   13.0270    0.9061 H      502  DMS502      0.0000
     10 H          -6.4283   14.7646    1.2728 H      502  DMS502      0.0000
@<TRIPOS>BOND
     1     1     2    2
     2     1     3    1
     3     1     4    1
     4     3     5    1
     5     3     6    1
     6     3     7    1
     7     4     8    1
     8     4     9    1
     9     4    10    1

