DMS_1_A_502
  -ISIS-            3D

 10  9  0  0  0  0  0  0  0  0  1 V2000
   -4.1950   14.3610    0.5320 S   0  0  0  0  0
   -4.5700   14.8460   -0.8030 O   0  0  0  0  0
   -3.8770   15.8340    1.4250 C   0  0  0  0  0
   -5.6870   13.9440    1.3610 C   0  0  0  0  0
   -3.7283   15.6022    2.4995 H   0  0  0  0  0
   -4.7171   16.5505    1.3168 H   0  0  0  0  0
   -2.9522   16.3074    1.0361 H   0  0  0  0  0
   -5.4830   13.7449    2.4330 H   0  0  0  0  0
   -6.1144   13.0270    0.9061 H   0  0  0  0  0
   -6.4283   14.7646    1.2728 H   0  0  0  0  0
  1  2  2  0  0  0
  1  3  1  0  0  0
  1  4  1  0  0  0
  3  5  1  0  0  0
  3  6  1  0  0  0
  3  7  1  0  0  0
  4  8  1  0  0  0
  4  9  1  0  0  0
  4 10  1  0  0  0
M  END
$$$$
