@<TRIPOS>MOLECULE
DMS_2_A_411
 10 9 0 0 0
SMALL
NO_CHARGES

@<TRIPOS>ATOM
      1 S          -2.5480  -18.8090   -8.2910 S.o    411  DMS411      0.0000
      2 O          -3.9350  -18.6900   -8.8670 O.2    411  DMS411      0.0000
      3 C1         -2.1390  -20.5670   -8.1400 C.3    411  DMS411      0.0000
      4 C2         -1.3360  -18.3180   -9.5580 C.3    411  DMS411      0.0000
      5 H          -1.0906  -20.6760   -7.7947 H      411  DMS411      0.0000
      6 H          -2.2617  -21.0685   -9.1218 H      411  DMS411      0.0000
      7 H          -2.8177  -21.0381   -7.3999 H      411  DMS411      0.0000
      8 H          -0.3092  -18.4851   -9.1732 H      411  DMS411      0.0000
      9 H          -1.4684  -17.2418   -9.7917 H      411  DMS411      0.0000
     10 H          -1.4914  -18.9163  -10.4791 H      411  DMS411      0.0000
@<TRIPOS>BOND
     1     1     2    2
     2     1     3    1
     3     1     4    1
     4     3     5    1
     5     3     6    1
     6     3     7    1
     7     4     8    1
     8     4     9    1
     9     4    10    1

