DMS_1_A_411
  -ISIS-            3D

 10  9  0  0  0  0  0  0  0  0  1 V2000
    2.5480  -18.8090    8.2910 S   0  0  0  0  0
    3.9350  -18.6900    8.8670 O   0  0  0  0  0
    2.1390  -20.5670    8.1400 C   0  0  0  0  0
    1.3360  -18.3180    9.5580 C   0  0  0  0  0
    1.0906  -20.6760    7.7947 H   0  0  0  0  0
    2.2617  -21.0685    9.1218 H   0  0  0  0  0
    2.8177  -21.0381    7.3999 H   0  0  0  0  0
    0.3092  -18.4851    9.1732 H   0  0  0  0  0
    1.4684  -17.2418    9.7917 H   0  0  0  0  0
    1.4914  -18.9163   10.4791 H   0  0  0  0  0
  1  2  2  0  0  0
  1  3  1  0  0  0
  1  4  1  0  0  0
  3  5  1  0  0  0
  3  6  1  0  0  0
  3  7  1  0  0  0
  4  8  1  0  0  0
  4  9  1  0  0  0
  4 10  1  0  0  0
M  END
$$$$
