@<TRIPOS>MOLECULE
DMS_2_A_408
 10 9 0 0 0
SMALL
NO_CHARGES

@<TRIPOS>ATOM
      1 S          -6.4780  -22.7690    1.6130 S.o    408  DMS408      0.0000
      2 O          -6.9280  -21.4370    1.1030 O.2    408  DMS408      0.0000
      3 C1         -7.7340  -24.0370    1.2610 C.3    408  DMS408      0.0000
      4 C2         -5.0830  -23.3860    0.6310 C.3    408  DMS408      0.0000
      5 H          -7.3696  -25.0255    1.6080 H      408  DMS408      0.0000
      6 H          -7.9331  -24.0745    0.1704 H      408  DMS408      0.0000
      7 H          -8.6705  -23.7824    1.7981 H      408  DMS408      0.0000
      8 H          -4.7895  -24.3917    0.9951 H      408  DMS408      0.0000
      9 H          -4.2243  -22.6924    0.7396 H      408  DMS408      0.0000
     10 H          -5.3743  -23.4468   -0.4376 H      408  DMS408      0.0000
@<TRIPOS>BOND
     1     1     2    2
     2     1     3    1
     3     1     4    1
     4     3     5    1
     5     3     6    1
     6     3     7    1
     7     4     8    1
     8     4     9    1
     9     4    10    1

