@<TRIPOS>MOLECULE
EDO_1_B_603
 10 9 0 0 0
SMALL
NO_CHARGES

@<TRIPOS>ATOM
      1 C1          1.8310  -20.3020   -1.9330 C.3    603  EDO603      0.0000
      2 O1          3.2400  -20.1450   -1.7300 O.3    603  EDO603      0.0000
      3 C2          1.5600  -21.3400   -3.0180 C.3    603  EDO603      0.0000
      4 O2          1.5630  -22.6490   -2.4360 O.3    603  EDO603      0.0000
      5 H           1.4080  -19.3231   -2.2453 H      603  EDO603      0.0000
      6 H           1.3351  -20.5820   -0.9800 H      603  EDO603      0.0000
      7 H           3.3720  -19.4871   -1.0602 H      603  EDO603      0.0000
      8 H           2.3033  -21.2786   -3.8398 H      603  EDO603      0.0000
      9 H           0.5606  -21.1657   -3.4683 H      603  EDO603      0.0000
     10 H           2.4400  -22.8047   -2.1087 H      603  EDO603      0.0000
@<TRIPOS>BOND
     1     1     2    1
     2     1     3    1
     3     1     5    1
     4     1     6    1
     5     2     7    1
     6     3     4    1
     7     3     8    1
     8     3     9    1
     9     4    10    1

