EDO_1_B_601
  -ISIS-            3D

 10  9  0  0  0  0  0  0  0  0  1 V2000
   -4.3650    1.8700   12.2790 C   0  0  0  0  0
   -4.2250    3.1820   11.9910 O   0  0  0  0  0
   -5.5300    1.5510   13.0870 C   0  0  0  0  0
   -6.3610    0.7000   12.5170 O   0  0  0  0  0
   -3.4457    1.5419   12.8095 H   0  0  0  0  0
   -4.3685    1.2874   11.3323 H   0  0  0  0  0
   -4.8764    3.4254   11.3457 H   0  0  0  0  0
   -6.0842    2.4805   13.3417 H   0  0  0  0  0
   -5.1986    1.1322   14.0628 H   0  0  0  0  0
   -7.0856    0.5164   13.1009 H   0  0  0  0  0
  1  2  1  0  0  0
  1  3  1  0  0  0
  1  5  1  0  0  0
  1  6  1  0  0  0
  2  7  1  0  0  0
  3  4  1  0  0  0
  3  8  1  0  0  0
  3  9  1  0  0  0
  4 10  1  0  0  0
M  END
$$$$
