EDO_1_A_403
  -ISIS-            3D

 10  9  0  0  0  0  0  0  0  0  1 V2000
   20.3570    5.3190  -34.7290 C   0  0  0  0  0
   19.8750    4.6500  -35.9010 O   0  0  0  0  0
   19.1670    5.8760  -33.9600 C   0  0  0  0  0
   18.3330    6.6030  -34.8680 O   0  0  0  0  0
   21.0467    6.1352  -35.0307 H   0  0  0  0  0
   20.9359    4.6060  -34.1072 H   0  0  0  0  0
   19.2231    5.2242  -36.2873 H   0  0  0  0  0
   19.5092    6.5422  -33.1404 H   0  0  0  0  0
   18.5831    5.0494  -33.5021 H   0  0  0  0  0
   17.5937    6.9433  -34.3822 H   0  0  0  0  0
  1  2  1  0  0  0
  1  3  1  0  0  0
  1  5  1  0  0  0
  1  6  1  0  0  0
  2  7  1  0  0  0
  3  4  1  0  0  0
  3  8  1  0  0  0
  3  9  1  0  0  0
  4 10  1  0  0  0
M  END
$$$$
