EDO_1_A_402
  -ISIS-            3D

 10  9  0  0  0  0  0  0  0  0  1 V2000
   22.4500   -8.7990   -8.1360 C   0  0  0  0  0
   22.7360   -8.0000   -9.2870 O   0  0  0  0  0
   21.2290   -9.6420   -8.4700 C   0  0  0  0  0
   21.5260  -10.3430   -9.6810 O   0  0  0  0  0
   22.2557   -8.1465   -7.2596 H   0  0  0  0  0
   23.3193   -9.4478   -7.8972 H   0  0  0  0  0
   23.6039   -7.6316   -9.1860 H   0  0  0  0  0
   20.3355   -8.9976   -8.6117 H   0  0  0  0  0
   21.0085  -10.3645   -7.6570 H   0  0  0  0  0
   20.7171  -10.6983  -10.0258 H   0  0  0  0  0
  1  2  1  0  0  0
  1  3  1  0  0  0
  1  5  1  0  0  0
  1  6  1  0  0  0
  2  7  1  0  0  0
  3  4  1  0  0  0
  3  8  1  0  0  0
  3  9  1  0  0  0
  4 10  1  0  0  0
M  END
$$$$
