@<TRIPOS>MOLECULE
EDO_1_A_405
 10 9 0 0 0
SMALL
NO_CHARGES

@<TRIPOS>ATOM
      1 C1          7.4840    2.4300  -11.0640 C.3    405  EDO405      0.0000
      2 O1          8.3610    2.8280  -12.1140 O.3    405  EDO405      0.0000
      3 C2          6.1990    3.2450  -11.1430 C.3    405  EDO405      0.0000
      4 O2          6.5180    4.6370  -11.0350 O.3    405  EDO405      0.0000
      5 H           7.9805    2.5842  -10.0825 H      405  EDO405      0.0000
      6 H           7.2566    1.3470  -11.1574 H      405  EDO405      0.0000
      7 H           9.1516    2.3087  -12.0536 H      405  EDO405      0.0000
      8 H           5.5066    2.9667  -10.3222 H      405  EDO405      0.0000
      9 H           5.6698    3.0580  -12.1009 H      405  EDO405      0.0000
     10 H           7.2261    4.7945  -11.6493 H      405  EDO405      0.0000
@<TRIPOS>BOND
     1     1     2    1
     2     1     3    1
     3     1     5    1
     4     1     6    1
     5     2     7    1
     6     3     4    1
     7     3     8    1
     8     3     9    1
     9     4    10    1

