EDO_1_B_604
  -ISIS-            3D

 10  9  0  0  0  0  0  0  0  0  1 V2000
    1.7110   -1.8090  -15.5890 C   0  0  0  0  0
    0.3180   -1.5590  -15.3780 O   0  0  0  0  0
    1.9220   -3.1770  -16.2420 C   0  0  0  0  0
    1.5210   -3.1410  -17.6220 O   0  0  0  0  0
    2.2359   -1.7696  -14.6109 H   0  0  0  0  0
    2.1381   -0.9976  -16.2129 H   0  0  0  0  0
   -0.0304   -2.2311  -14.8076 H   0  0  0  0  0
    1.3489   -3.9665  -15.7143 H   0  0  0  0  0
    2.9929   -3.4659  -16.1856 H   0  0  0  0  0
    2.0494   -2.4985  -18.0764 H   0  0  0  0  0
  1  2  1  0  0  0
  1  3  1  0  0  0
  1  5  1  0  0  0
  1  6  1  0  0  0
  2  7  1  0  0  0
  3  4  1  0  0  0
  3  8  1  0  0  0
  3  9  1  0  0  0
  4 10  1  0  0  0
M  END
$$$$
