@<TRIPOS>MOLECULE
EDO_1_B_601
 10 9 0 0 0
SMALL
NO_CHARGES

@<TRIPOS>ATOM
      1 C1         -4.3650    1.8700   12.2790 C.3    601  EDO601      0.0000
      2 O1         -4.2250    3.1820   11.9910 O.3    601  EDO601      0.0000
      3 C2         -5.5300    1.5510   13.0870 C.3    601  EDO601      0.0000
      4 O2         -6.3610    0.7000   12.5170 O.3    601  EDO601      0.0000
      5 H          -3.4457    1.5419   12.8095 H      601  EDO601      0.0000
      6 H          -4.3685    1.2874   11.3323 H      601  EDO601      0.0000
      7 H          -4.8764    3.4254   11.3457 H      601  EDO601      0.0000
      8 H          -6.0842    2.4805   13.3417 H      601  EDO601      0.0000
      9 H          -5.1986    1.1322   14.0628 H      601  EDO601      0.0000
     10 H          -7.0856    0.5164   13.1009 H      601  EDO601      0.0000
@<TRIPOS>BOND
     1     1     2    1
     2     1     3    1
     3     1     5    1
     4     1     6    1
     5     2     7    1
     6     3     4    1
     7     3     8    1
     8     3     9    1
     9     4    10    1

