@<TRIPOS>MOLECULE
EDO_1_A_401
 10 9 0 0 0
SMALL
NO_CHARGES

@<TRIPOS>ATOM
      1 C1         35.6120   13.1950  -35.8580 C.3    401  EDO401      0.0000
      2 O1         35.5290   13.2590  -34.4270 O.3    401  EDO401      0.0000
      3 C2         34.4270   12.4110  -36.4100 C.3    401  EDO401      0.0000
      4 O2         34.2530   11.1850  -35.6900 O.3    401  EDO401      0.0000
      5 H          36.5627   12.6980  -36.1465 H      401  EDO401      0.0000
      6 H          35.6297   14.2209  -36.2824 H      401  EDO401      0.0000
      7 H          36.2763   13.7478  -34.1093 H      401  EDO401      0.0000
      8 H          34.5715   12.1859  -37.4866 H      401  EDO401      0.0000
      9 H          33.4970   13.0120  -36.3248 H      401  EDO401      0.0000
     10 H          34.3762   11.3984  -34.7717 H      401  EDO401      0.0000
@<TRIPOS>BOND
     1     1     2    1
     2     1     3    1
     3     1     5    1
     4     1     6    1
     5     2     7    1
     6     3     4    1
     7     3     8    1
     8     3     9    1
     9     4    10    1

