EDO_1_A_405
  -ISIS-            3D

 10  9  0  0  0  0  0  0  0  0  1 V2000
    7.4840    2.4300  -11.0640 C   0  0  0  0  0
    8.3610    2.8280  -12.1140 O   0  0  0  0  0
    6.1990    3.2450  -11.1430 C   0  0  0  0  0
    6.5180    4.6370  -11.0350 O   0  0  0  0  0
    7.9805    2.5842  -10.0825 H   0  0  0  0  0
    7.2566    1.3470  -11.1574 H   0  0  0  0  0
    9.1516    2.3087  -12.0536 H   0  0  0  0  0
    5.5066    2.9667  -10.3222 H   0  0  0  0  0
    5.6698    3.0580  -12.1009 H   0  0  0  0  0
    7.2261    4.7945  -11.6493 H   0  0  0  0  0
  1  2  1  0  0  0
  1  3  1  0  0  0
  1  5  1  0  0  0
  1  6  1  0  0  0
  2  7  1  0  0  0
  3  4  1  0  0  0
  3  8  1  0  0  0
  3  9  1  0  0  0
  4 10  1  0  0  0
M  END
$$$$
