EDO_1_B_605
  -ISIS-            3D

 10  9  0  0  0  0  0  0  0  0  1 V2000
    7.4510  -17.0700    0.0920 C   0  0  0  0  0
    8.7910  -17.5750    0.1930 O   0  0  0  0  0
    6.7370  -17.6860   -1.1060 C   0  0  0  0  0
    6.3060  -19.0010   -0.7380 O   0  0  0  0  0
    7.4961  -15.9669   -0.0330 H   0  0  0  0  0
    6.8955  -17.2690    1.0326 H   0  0  0  0  0
    9.2059  -17.1657    0.9406 H   0  0  0  0  0
    7.3914  -17.7259   -2.0013 H   0  0  0  0  0
    5.8429  -17.0852   -1.3729 H   0  0  0  0  0
    7.0877  -19.4975   -0.5291 H   0  0  0  0  0
  1  2  1  0  0  0
  1  3  1  0  0  0
  1  5  1  0  0  0
  1  6  1  0  0  0
  2  7  1  0  0  0
  3  4  1  0  0  0
  3  8  1  0  0  0
  3  9  1  0  0  0
  4 10  1  0  0  0
M  END
$$$$
