@<TRIPOS>MOLECULE
MYC_1_A_407
 35 37 0 0 0
SMALL
NO_CHARGES

@<TRIPOS>ATOM
      1 C1         22.6390    3.0130  -32.1600 C.ar   407  MYC407      0.0000
      2 C2         21.7470    3.5150  -31.2220 C.ar   407  MYC407      0.0000
      3 C3         22.0440    3.4310  -29.8620 C.ar   407  MYC407      0.0000
      4 C4         23.2410    2.8390  -29.4460 C.ar   407  MYC407      0.0000
      5 C5         24.1280    2.3410  -30.3910 C.ar   407  MYC407      0.0000
      6 C6         23.8270    2.4300  -31.7460 C.ar   407  MYC407      0.0000
      7 C9         21.0830    3.9590  -28.8480 C.2    407  MYC407      0.0000
      8 C10        21.4240    3.8440  -27.5070 C.2    407  MYC407      0.0000
      9 C11        22.7010    3.1890  -27.1380 C.2    407  MYC407      0.0000
     10 C14        23.0770    3.1420  -25.7000 C.ar   407  MYC407      0.0000
     11 C15        24.3260    3.7010  -25.4450 C.ar   407  MYC407      0.0000
     12 C16        24.8200    3.7880  -24.1530 C.ar   407  MYC407      0.0000
     13 C17        24.0590    3.3190  -23.1140 C.ar   407  MYC407      0.0000
     14 C18        22.8020    2.7710  -23.3490 C.ar   407  MYC407      0.0000
     15 C19        22.2700    2.6750  -24.6480 C.ar   407  MYC407      0.0000
     16 O12        23.5600    2.7430  -28.1150 O.3    407  MYC407      0.0000
     17 O13        19.9970    4.4930  -29.2060 O.2    407  MYC407      0.0000
     18 O23        22.1150    2.3340  -22.2690 O.3    407  MYC407      0.0000
     19 O24        24.5520    3.4090  -21.8550 O.3    407  MYC407      0.0000
     20 O25        26.0540    4.3170  -23.9030 O.3    407  MYC407      0.0000
     21 O27        20.6100    4.3030  -26.5090 O.3    407  MYC407      0.0000
     22 O29        24.6920    1.9500  -32.6760 O.3    407  MYC407      0.0000
     23 O30        20.5840    4.0920  -31.6390 O.3    407  MYC407      0.0000
     24 H          22.4017    3.0813  -33.2353 H      407  MYC407      0.0000
     25 H          25.0744    1.8745  -30.0713 H      407  MYC407      0.0000
     26 H          21.9201    4.8598  -27.5538 H      407  MYC407      0.0000
     27 H          22.1739    2.1922  -27.0817 H      407  MYC407      0.0000
     28 H          24.9312    4.0816  -26.2857 H      407  MYC407      0.0000
     29 H          21.2694    2.2531  -24.8352 H      407  MYC407      0.0000
     30 H          21.2605    1.9891  -22.4882 H      407  MYC407      0.0000
     31 H          25.4122    3.8108  -21.8945 H      407  MYC407      0.0000
     32 H          26.4945    4.6086  -24.6881 H      407  MYC407      0.0000
     33 H          19.7750    4.5722  -26.8767 H      407  MYC407      0.0000
     34 H          24.4021    2.0516  -33.5711 H      407  MYC407      0.0000
     35 H          20.4588    4.1070  -32.5771 H      407  MYC407      0.0000
@<TRIPOS>BOND
     1     1     2   ar
     2     1     6   ar
     3     1    24    1
     4     2     3   ar
     5     2    23    1
     6     3     4   ar
     7     3     7    1
     8     4     5   ar
     9     4    16    1
    10     5     6   ar
    11     5    25    1
    12     6    22    1
    13     7     8    1
    14     7    17    2
    15     8     9    1
    16     8    21    1
    17     8    26    1
    18     9    10    1
    19     9    16    1
    20     9    27    1
    21    10    11   ar
    22    10    15   ar
    23    11    12   ar
    24    11    28    1
    25    12    13   ar
    26    12    20    1
    27    13    14   ar
    28    13    19    1
    29    14    15   ar
    30    14    18    1
    31    15    29    1
    32    18    30    1
    33    19    31    1
    34    20    32    1
    35    21    33    1
    36    22    34    1
    37    23    35    1

