@<TRIPOS>MOLECULE
ACY_1_A_402
 10 9 0 0 0
SMALL
NO_CHARGES

@<TRIPOS>ATOM
      1 C           2.6780    2.9520    0.1030 C.2    402  ACY402      0.0000
      2 O           2.9010    2.0390    1.1040 O.co2  402  ACY402      0.0000
      3 OXT         1.9680    2.9430   -1.0660 O.co2  402  ACY402      0.0000
      4 CH3         3.6490    4.1000    0.0940 C.3    402  ACY402      0.0000
      5 H           1.9333    3.5942    0.6987 H      402  ACY402      0.0000
      6 H           3.0921    2.5588    2.2872 H      402  ACY402      0.0000
      7 H           1.2773    4.0257   -1.3080 H      402  ACY402      0.0000
      8 H           3.2522    5.0128   -0.4064 H      402  ACY402      0.0000
      9 H           4.5694    3.8066   -0.4596 H      402  ACY402      0.0000
     10 H           3.9754    4.4029    1.1149 H      402  ACY402      0.0000
@<TRIPOS>BOND
     1     1     2    1
     2     1     3    1
     3     1     4    1
     4     1     5    1
     5     2     6    1
     6     3     7    1
     7     4     8    1
     8     4     9    1
     9     4    10    1

