ACY_2_A_402
  -ISIS-            3D

 10  9  0  0  0  0  0  0  0  0  1 V2000
   -2.9520   -2.6780   51.8280 C   0  0  0  0  0
   -2.0390   -2.9010   50.8270 O   0  0  0  0  0
   -2.9430   -1.9680   52.9970 O   0  0  0  0  0
   -4.1000   -3.6490   51.8370 C   0  0  0  0  0
   -3.5944   -1.9331   51.2326 H   0  0  0  0  0
   -2.5612   -3.0894   49.6444 H   0  0  0  0  0
   -4.0355   -1.2974   53.2514 H   0  0  0  0  0
   -5.0138   -3.2529   52.3361 H   0  0  0  0  0
   -3.8062   -4.5684   52.3920 H   0  0  0  0  0
   -4.4012   -3.9774   50.8162 H   0  0  0  0  0
  1  2  1  0  0  0
  1  3  1  0  0  0
  1  4  1  0  0  0
  1  5  1  0  0  0
  2  6  1  0  0  0
  3  7  1  0  0  0
  4  8  1  0  0  0
  4  9  1  0  0  0
  4 10  1  0  0  0
M  END
$$$$
