@<TRIPOS>MOLECULE
AZP_2_A_401
 89 90 0 0 0
SMALL
NO_CHARGES

@<TRIPOS>ATOM
      1 N          14.5140  -16.6830   39.6460 N.am   401  AZP401      0.0000
      2 CAI        15.3460  -16.6040   38.6160 C.2    401  AZP401      0.0000
      3 OAH        15.4930  -15.3100   38.0020 O.3    401  AZP401      0.0000
      4 CAG        15.6530  -15.3840   36.5770 C.3    401  AZP401      0.0000
      5 CAE        16.0420  -13.9630   36.1680 C.ar   401  AZP401      0.0000
      6 CAD        15.0560  -13.0150   35.8480 C.ar   401  AZP401      0.0000
      7 CAC        15.4640  -11.7140   35.4580 C.ar   401  AZP401      0.0000
      8 CAB        16.8150  -11.3370   35.4320 C.ar   401  AZP401      0.0000
      9 CAA        17.7970  -12.2630   35.7630 C.ar   401  AZP401      0.0000
     10 CAF        17.4010  -13.5720   36.1260 C.ar   401  AZP401      0.0000
     11 OAL        15.9900  -17.5570   38.2130 O.2    401  AZP401      0.0000
     12 CA         14.4570  -17.7560   40.6670 C.3    401  AZP401      0.0000
     13 CB         14.9640  -17.2660   42.0380 C.3    401  AZP401      0.0000
     14 CG         16.4420  -17.5330   42.2610 C.3    401  AZP401      0.0000
     15 CD1        17.2480  -16.6370   41.3600 C.3    401  AZP401      0.0000
     16 CD2        16.8680  -17.1180   43.6730 C.3    401  AZP401      0.0000
     17 C          13.0060  -18.0810   40.7860 C.2    401  AZP401      0.0000
     18 O          12.1760  -17.1990   40.9810 O.2    401  AZP401      0.0000
     19 NAS        12.6130  -19.3290   40.6900 N.am   401  AZP401      0.0000
     20 CAT        11.2200  -19.7080   40.8200 C.3    401  AZP401      0.0000
     21 CAV        11.0820  -21.2170   40.6770 C.3    401  AZP401      0.0000
     22 CAW        11.3080  -21.7060   39.2640 C.ar   401  AZP401      0.0000
     23 CBF        10.6560  -21.1500   38.1650 C.ar   401  AZP401      0.0000
     24 CBG        10.8670  -21.6840   36.8820 C.ar   401  AZP401      0.0000
     25 CBH        11.7340  -22.7500   36.6760 C.ar   401  AZP401      0.0000
     26 CBI        12.3960  -23.2790   37.7650 C.ar   401  AZP401      0.0000
     27 CBJ        12.1630  -22.7630   39.0420 C.ar   401  AZP401      0.0000
     28 CAU        10.7380  -19.3290   42.1730 C.2    401  AZP401      0.0000
     29 OAY        11.4610  -19.4060   43.1980 O.2    401  AZP401      0.0000
     30 NAX         9.4630  -18.9280   42.2080 N.am   401  AZP401      0.0000
     31 NAZ         8.9150  -18.5760   43.4800 N.am   401  AZP401      0.0000
     32 CBA         8.9970  -17.1910   43.8760 C.3    401  AZP401      0.0000
     33 CBB         9.7150  -17.0110   45.2190 C.3    401  AZP401      0.0000
     34 CBC         9.8080  -15.5040   45.4720 C.2    401  AZP401      0.0000
     35 NBE        10.6810  -15.0040   46.3590 N.am   401  AZP401      0.0000
     36 OBD         9.0870  -14.7380   44.8570 O.2    401  AZP401      0.0000
     37 CBK         8.3800  -19.5770   44.2360 C.2    401  AZP401      0.0000
     38 OBL         7.9480  -19.3720   45.3420 O.2    401  AZP401      0.0000
     39 CBM         8.2640  -20.9900   43.7160 C.3    401  AZP401      0.0000
     40 CBO         9.1350  -22.0460   44.4090 C.3    401  AZP401      0.0000
     41 OBN        10.4670  -21.6360   44.1660 O.3    401  AZP401      0.0000
     42 CBP         8.9070  -23.3830   43.7620 C.2    401  AZP401      0.0000
     43 OBQ         8.0060  -24.0830   44.1350 O.2    401  AZP401      0.0000
     44 OBR         9.7970  -23.7880   42.6930 O.3    401  AZP401      0.0000
     45 CBS         9.4230  -24.9540   41.9850 C.3    401  AZP401      0.0000
     46 CBT        10.5440  -25.0940   40.9860 C.3    401  AZP401      0.0000
     47 H          13.8625  -15.8977   39.7855 H      401  AZP401      0.0000
     48 H          14.7099  -15.6903   36.0795 H      401  AZP401      0.0000
     49 H          16.4499  -16.0924   36.2716 H      401  AZP401      0.0000
     50 H          13.9845  -13.2730   35.8857 H      401  AZP401      0.0000
     51 H          14.6940  -10.9729   35.1818 H      401  AZP401      0.0000
     52 H          17.0969  -10.3100   35.1440 H      401  AZP401      0.0000
     53 H          18.8643  -11.9854   35.7438 H      401  AZP401      0.0000
     54 H          18.1825  -14.3062   36.3879 H      401  AZP401      0.0000
     55 H          15.0253  -18.6577   40.3434 H      401  AZP401      0.0000
     56 H          14.4035  -17.8137   42.8324 H      401  AZP401      0.0000
     57 H          14.7199  -16.1887   42.1815 H      401  AZP401      0.0000
     58 H          16.6901  -18.6066   42.0888 H      401  AZP401      0.0000
     59 H          18.3327  -16.6660   41.6084 H      401  AZP401      0.0000
     60 H          16.9350  -15.5700   41.4111 H      401  AZP401      0.0000
     61 H          17.1865  -16.9499   40.2986 H      401  AZP401      0.0000
     62 H          17.9510  -17.3013   43.8545 H      401  AZP401      0.0000
     63 H          16.3169  -17.6988   44.4464 H      401  AZP401      0.0000
     64 H          16.6736  -16.0412   43.8781 H      401  AZP401      0.0000
     65 H          13.3093  -20.0656   40.5117 H      401  AZP401      0.0000
     66 H          10.6129  -19.1890   40.0433 H      401  AZP401      0.0000
     67 H          10.0487  -21.5197   40.9632 H      401  AZP401      0.0000
     68 H          11.7629  -21.7330   41.3916 H      401  AZP401      0.0000
     69 H           9.9579  -20.3048   38.2817 H      401  AZP401      0.0000
     70 H          10.3343  -21.2460   36.0202 H      401  AZP401      0.0000
     71 H          11.8939  -23.1591   35.6643 H      401  AZP401      0.0000
     72 H          13.1009  -24.1169   37.6288 H      401  AZP401      0.0000
     73 H          12.6974  -23.2226   39.8915 H      401  AZP401      0.0000
     74 H           8.9022  -18.8543   41.3475 H      401  AZP401      0.0000
     75 H           7.9693  -16.7634   43.9406 H      401  AZP401      0.0000
     76 H           9.5346  -16.6002   43.0974 H      401  AZP401      0.0000
     77 H          10.7345  -17.4567   45.1699 H      401  AZP401      0.0000
     78 H           9.1675  -17.4889   46.0598 H      401  AZP401      0.0000
     79 H           8.4381  -21.0273   42.6200 H      401  AZP401      0.0000
     80 H           7.1990  -21.2969   43.8363 H      401  AZP401      0.0000
     81 H           8.9173  -22.0812   45.4972 H      401  AZP401      0.0000
     82 H          11.0640  -22.1753   44.6665 H      401  AZP401      0.0000
     83 H           8.4459  -24.8380   41.4713 H      401  AZP401      0.0000
     84 H           9.3818  -25.8433   42.6484 H      401  AZP401      0.0000
     85 H          10.4589  -26.0465   40.4188 H      401  AZP401      0.0000
     86 H          11.5467  -25.0902   41.4670 H      401  AZP401      0.0000
     87 H          10.5158  -24.2768   40.2370 H      401  AZP401      0.0000
     88 H          10.7122  -13.9851   46.4927 H      401  AZP401      0.0000
     89 H          11.2956  -15.6400   46.8828 H      401  AZP401      0.0000
@<TRIPOS>BOND
     1     1     2    1
     2     1    12    1
     3     1    47    1
     4     2     3    1
     5     2    11    2
     6     3     4    1
     7     4     5    1
     8     4    48    1
     9     4    49    1
    10     5     6   ar
    11     5    10   ar
    12     6     7   ar
    13     6    50    1
    14     7     8   ar
    15     7    51    1
    16     8     9   ar
    17     8    52    1
    18     9    10   ar
    19     9    53    1
    20    10    54    1
    21    12    13    1
    22    12    17    1
    23    12    55    1
    24    13    14    1
    25    13    56    1
    26    13    57    1
    27    14    15    1
    28    14    16    1
    29    14    58    1
    30    15    59    1
    31    15    60    1
    32    15    61    1
    33    16    62    1
    34    16    63    1
    35    16    64    1
    36    17    18    2
    37    17    19    1
    38    19    20    1
    39    19    65    1
    40    20    21    1
    41    20    28    1
    42    20    66    1
    43    21    22    1
    44    21    67    1
    45    21    68    1
    46    22    23   ar
    47    22    27   ar
    48    23    24   ar
    49    23    69    1
    50    24    25   ar
    51    24    70    1
    52    25    26   ar
    53    25    71    1
    54    26    27   ar
    55    26    72    1
    56    27    73    1
    57    28    29    2
    58    28    30    1
    59    30    31    1
    60    30    74    1
    61    31    32    1
    62    31    37    1
    63    32    33    1
    64    32    75    1
    65    32    76    1
    66    33    34    1
    67    33    77    1
    68    33    78    1
    69    34    35    1
    70    34    36    2
    71    35    88    1
    72    35    89    1
    73    37    38    2
    74    37    39    1
    75    39    40    1
    76    39    79    1
    77    39    80    1
    78    40    41    1
    79    40    42    1
    80    40    81    1
    81    41    82    1
    82    42    43    2
    83    42    44    1
    84    44    45    1
    85    45    46    1
    86    45    83    1
    87    45    84    1
    88    46    85    1
    89    46    86    1
    90    46    87    1

