@<TRIPOS>MOLECULE
AZP_1_A_401
 89 90 0 0 0
SMALL
NO_CHARGES

@<TRIPOS>ATOM
      1 N          16.6830  -14.5140   12.2850 N.am   401  AZP401      0.0000
      2 CAI        16.6040  -15.3460   13.3150 C.2    401  AZP401      0.0000
      3 OAH        15.3100  -15.4930   13.9290 O.3    401  AZP401      0.0000
      4 CAG        15.3840  -15.6530   15.3540 C.3    401  AZP401      0.0000
      5 CAE        13.9630  -16.0420   15.7630 C.ar   401  AZP401      0.0000
      6 CAD        13.0150  -15.0560   16.0830 C.ar   401  AZP401      0.0000
      7 CAC        11.7140  -15.4640   16.4730 C.ar   401  AZP401      0.0000
      8 CAB        11.3370  -16.8150   16.4990 C.ar   401  AZP401      0.0000
      9 CAA        12.2630  -17.7970   16.1680 C.ar   401  AZP401      0.0000
     10 CAF        13.5720  -17.4010   15.8050 C.ar   401  AZP401      0.0000
     11 OAL        17.5570  -15.9900   13.7180 O.2    401  AZP401      0.0000
     12 CA         17.7560  -14.4570   11.2640 C.3    401  AZP401      0.0000
     13 CB         17.2660  -14.9640    9.8930 C.3    401  AZP401      0.0000
     14 CG         17.5330  -16.4420    9.6700 C.3    401  AZP401      0.0000
     15 CD1        16.6370  -17.2480   10.5710 C.3    401  AZP401      0.0000
     16 CD2        17.1180  -16.8680    8.2580 C.3    401  AZP401      0.0000
     17 C          18.0810  -13.0060   11.1450 C.2    401  AZP401      0.0000
     18 O          17.1990  -12.1760   10.9500 O.2    401  AZP401      0.0000
     19 NAS        19.3290  -12.6130   11.2410 N.am   401  AZP401      0.0000
     20 CAT        19.7080  -11.2200   11.1110 C.3    401  AZP401      0.0000
     21 CAV        21.2170  -11.0820   11.2540 C.3    401  AZP401      0.0000
     22 CAW        21.7060  -11.3080   12.6670 C.ar   401  AZP401      0.0000
     23 CBF        21.1500  -10.6560   13.7660 C.ar   401  AZP401      0.0000
     24 CBG        21.6840  -10.8670   15.0490 C.ar   401  AZP401      0.0000
     25 CBH        22.7500  -11.7340   15.2550 C.ar   401  AZP401      0.0000
     26 CBI        23.2790  -12.3960   14.1660 C.ar   401  AZP401      0.0000
     27 CBJ        22.7630  -12.1630   12.8890 C.ar   401  AZP401      0.0000
     28 CAU        19.3290  -10.7380    9.7580 C.2    401  AZP401      0.0000
     29 OAY        19.4060  -11.4610    8.7330 O.2    401  AZP401      0.0000
     30 NAX        18.9280   -9.4630    9.7230 N.am   401  AZP401      0.0000
     31 NAZ        18.5760   -8.9150    8.4510 N.am   401  AZP401      0.0000
     32 CBA        17.1910   -8.9970    8.0550 C.3    401  AZP401      0.0000
     33 CBB        17.0110   -9.7150    6.7120 C.3    401  AZP401      0.0000
     34 CBC        15.5040   -9.8080    6.4590 C.2    401  AZP401      0.0000
     35 NBE        15.0040  -10.6810    5.5720 N.am   401  AZP401      0.0000
     36 OBD        14.7380   -9.0870    7.0740 O.2    401  AZP401      0.0000
     37 CBK        19.5770   -8.3800    7.6950 C.2    401  AZP401      0.0000
     38 OBL        19.3720   -7.9480    6.5890 O.2    401  AZP401      0.0000
     39 CBM        20.9900   -8.2640    8.2150 C.3    401  AZP401      0.0000
     40 CBO        22.0460   -9.1350    7.5220 C.3    401  AZP401      0.0000
     41 OBN        21.6360  -10.4670    7.7650 O.3    401  AZP401      0.0000
     42 CBP        23.3830   -8.9070    8.1690 C.2    401  AZP401      0.0000
     43 OBQ        24.0830   -8.0060    7.7960 O.2    401  AZP401      0.0000
     44 OBR        23.7880   -9.7970    9.2380 O.3    401  AZP401      0.0000
     45 CBS        24.9540   -9.4230    9.9460 C.3    401  AZP401      0.0000
     46 CBT        25.0940  -10.5440   10.9450 C.3    401  AZP401      0.0000
     47 H          15.8975  -13.8627   12.1459 H      401  AZP401      0.0000
     48 H          15.6903  -14.7099   15.8515 H      401  AZP401      0.0000
     49 H          16.0924  -16.4500   15.6594 H      401  AZP401      0.0000
     50 H          13.2730  -13.9845   16.0454 H      401  AZP401      0.0000
     51 H          10.9729  -14.6941   16.7492 H      401  AZP401      0.0000
     52 H          10.3100  -17.0969   16.7870 H      401  AZP401      0.0000
     53 H          11.9854  -18.8642   16.1873 H      401  AZP401      0.0000
     54 H          14.3061  -18.1824   15.5432 H      401  AZP401      0.0000
     55 H          18.6577  -15.0253   11.5876 H      401  AZP401      0.0000
     56 H          17.8137  -14.4033    9.0985 H      401  AZP401      0.0000
     57 H          16.1886  -14.7200    9.7497 H      401  AZP401      0.0000
     58 H          18.6067  -16.6901    9.8421 H      401  AZP401      0.0000
     59 H          16.6658  -18.3327   10.3222 H      401  AZP401      0.0000
     60 H          15.5700  -16.9347   10.5202 H      401  AZP401      0.0000
     61 H          16.9504  -17.1868   11.6325 H      401  AZP401      0.0000
     62 H          17.3014  -17.9510    8.0765 H      401  AZP401      0.0000
     63 H          17.6989  -16.3168    7.4847 H      401  AZP401      0.0000
     64 H          16.0412  -16.6736    8.0529 H      401  AZP401      0.0000
     65 H          20.0656  -13.3090   11.4200 H      401  AZP401      0.0000
     66 H          19.1891  -10.6129   11.8878 H      401  AZP401      0.0000
     67 H          21.5198  -10.0488   10.9675 H      401  AZP401      0.0000
     68 H          21.7328  -11.7632   10.5396 H      401  AZP401      0.0000
     69 H          20.3049   -9.9578   13.6495 H      401  AZP401      0.0000
     70 H          21.2462  -10.3344   15.9109 H      401  AZP401      0.0000
     71 H          23.1592  -11.8939   16.2666 H      401  AZP401      0.0000
     72 H          24.1170  -13.1008   14.3020 H      401  AZP401      0.0000
     73 H          23.2227  -12.6970   12.0394 H      401  AZP401      0.0000
     74 H          18.8540   -8.9029   10.5835 H      401  AZP401      0.0000
     75 H          16.7633   -7.9693    7.9904 H      401  AZP401      0.0000
     76 H          16.6002   -9.5347    8.8336 H      401  AZP401      0.0000
     77 H          17.4567  -10.7345    6.7611 H      401  AZP401      0.0000
     78 H          17.4889   -9.1676    5.8711 H      401  AZP401      0.0000
     79 H          21.0274   -8.4368    9.3114 H      401  AZP401      0.0000
     80 H          21.2969   -7.1990    8.0937 H      401  AZP401      0.0000
     81 H          22.0901   -8.9230    6.4332 H      401  AZP401      0.0000
     82 H          20.7725  -10.6295    7.4066 H      401  AZP401      0.0000
     83 H          24.8380   -8.4460   10.4598 H      401  AZP401      0.0000
     84 H          25.8433   -9.3818    9.2827 H      401  AZP401      0.0000
     85 H          26.0467  -10.4590   11.5119 H      401  AZP401      0.0000
     86 H          25.0899  -11.5468   10.4642 H      401  AZP401      0.0000
     87 H          24.2770  -10.5155   11.6943 H      401  AZP401      0.0000
     88 H          13.9851  -10.7120    5.4389 H      401  AZP401      0.0000
     89 H          15.6383  -11.2962    5.0468 H      401  AZP401      0.0000
@<TRIPOS>BOND
     1     1     2    1
     2     1    12    1
     3     1    47    1
     4     2     3    1
     5     2    11    2
     6     3     4    1
     7     4     5    1
     8     4    48    1
     9     4    49    1
    10     5     6   ar
    11     5    10   ar
    12     6     7   ar
    13     6    50    1
    14     7     8   ar
    15     7    51    1
    16     8     9   ar
    17     8    52    1
    18     9    10   ar
    19     9    53    1
    20    10    54    1
    21    12    13    1
    22    12    17    1
    23    12    55    1
    24    13    14    1
    25    13    56    1
    26    13    57    1
    27    14    15    1
    28    14    16    1
    29    14    58    1
    30    15    59    1
    31    15    60    1
    32    15    61    1
    33    16    62    1
    34    16    63    1
    35    16    64    1
    36    17    18    2
    37    17    19    1
    38    19    20    1
    39    19    65    1
    40    20    21    1
    41    20    28    1
    42    20    66    1
    43    21    22    1
    44    21    67    1
    45    21    68    1
    46    22    23   ar
    47    22    27   ar
    48    23    24   ar
    49    23    69    1
    50    24    25   ar
    51    24    70    1
    52    25    26   ar
    53    25    71    1
    54    26    27   ar
    55    26    72    1
    56    27    73    1
    57    28    29    2
    58    28    30    1
    59    30    31    1
    60    30    74    1
    61    31    32    1
    62    31    37    1
    63    32    33    1
    64    32    75    1
    65    32    76    1
    66    33    34    1
    67    33    77    1
    68    33    78    1
    69    34    35    1
    70    34    36    2
    71    35    88    1
    72    35    89    1
    73    37    38    2
    74    37    39    1
    75    39    40    1
    76    39    79    1
    77    39    80    1
    78    40    41    1
    79    40    42    1
    80    40    81    1
    81    41    82    1
    82    42    43    2
    83    42    44    1
    84    44    45    1
    85    45    46    1
    86    45    83    1
    87    45    84    1
    88    46    85    1
    89    46    86    1
    90    46    87    1

