AZP_2_A_401
  -ISIS-            3D

 89 90  0  0  0  0  0  0  0  0  1 V2000
   14.5140  -16.6830   39.6460 N   0  0  0  0  0
   15.3460  -16.6040   38.6160 C   0  0  0  0  0
   15.4930  -15.3100   38.0020 O   0  0  0  0  0
   15.6530  -15.3840   36.5770 C   0  0  0  0  0
   16.0420  -13.9630   36.1680 C   0  0  0  0  0
   15.0560  -13.0150   35.8480 C   0  0  0  0  0
   15.4640  -11.7140   35.4580 C   0  0  0  0  0
   16.8150  -11.3370   35.4320 C   0  0  0  0  0
   17.7970  -12.2630   35.7630 C   0  0  0  0  0
   17.4010  -13.5720   36.1260 C   0  0  0  0  0
   15.9900  -17.5570   38.2130 O   0  0  0  0  0
   14.4570  -17.7560   40.6670 C   0  0  0  0  0
   14.9640  -17.2660   42.0380 C   0  0  0  0  0
   16.4420  -17.5330   42.2610 C   0  0  0  0  0
   17.2480  -16.6370   41.3600 C   0  0  0  0  0
   16.8680  -17.1180   43.6730 C   0  0  0  0  0
   13.0060  -18.0810   40.7860 C   0  0  0  0  0
   12.1760  -17.1990   40.9810 O   0  0  0  0  0
   12.6130  -19.3290   40.6900 N   0  0  0  0  0
   11.2200  -19.7080   40.8200 C   0  0  0  0  0
   11.0820  -21.2170   40.6770 C   0  0  0  0  0
   11.3080  -21.7060   39.2640 C   0  0  0  0  0
   10.6560  -21.1500   38.1650 C   0  0  0  0  0
   10.8670  -21.6840   36.8820 C   0  0  0  0  0
   11.7340  -22.7500   36.6760 C   0  0  0  0  0
   12.3960  -23.2790   37.7650 C   0  0  0  0  0
   12.1630  -22.7630   39.0420 C   0  0  0  0  0
   10.7380  -19.3290   42.1730 C   0  0  0  0  0
   11.4610  -19.4060   43.1980 O   0  0  0  0  0
    9.4630  -18.9280   42.2080 N   0  0  0  0  0
    8.9150  -18.5760   43.4800 N   0  0  0  0  0
    8.9970  -17.1910   43.8760 C   0  0  0  0  0
    9.7150  -17.0110   45.2190 C   0  0  0  0  0
    9.8080  -15.5040   45.4720 C   0  0  0  0  0
   10.6810  -15.0040   46.3590 N   0  0  0  0  0
    9.0870  -14.7380   44.8570 O   0  0  0  0  0
    8.3800  -19.5770   44.2360 C   0  0  0  0  0
    7.9480  -19.3720   45.3420 O   0  0  0  0  0
    8.2640  -20.9900   43.7160 C   0  0  0  0  0
    9.1350  -22.0460   44.4090 C   0  0  0  0  0
   10.4670  -21.6360   44.1660 O   0  0  0  0  0
    8.9070  -23.3830   43.7620 C   0  0  0  0  0
    8.0060  -24.0830   44.1350 O   0  0  0  0  0
    9.7970  -23.7880   42.6930 O   0  0  0  0  0
    9.4230  -24.9540   41.9850 C   0  0  0  0  0
   10.5440  -25.0940   40.9860 C   0  0  0  0  0
   13.8625  -15.8977   39.7855 H   0  0  0  0  0
   14.7099  -15.6903   36.0795 H   0  0  0  0  0
   16.4499  -16.0924   36.2716 H   0  0  0  0  0
   13.9845  -13.2730   35.8857 H   0  0  0  0  0
   14.6940  -10.9729   35.1818 H   0  0  0  0  0
   17.0969  -10.3100   35.1440 H   0  0  0  0  0
   18.8643  -11.9854   35.7438 H   0  0  0  0  0
   18.1825  -14.3062   36.3879 H   0  0  0  0  0
   15.0253  -18.6577   40.3434 H   0  0  0  0  0
   14.4035  -17.8137   42.8324 H   0  0  0  0  0
   14.7199  -16.1887   42.1815 H   0  0  0  0  0
   16.6901  -18.6066   42.0888 H   0  0  0  0  0
   18.3327  -16.6660   41.6084 H   0  0  0  0  0
   16.9350  -15.5700   41.4111 H   0  0  0  0  0
   17.1865  -16.9499   40.2986 H   0  0  0  0  0
   17.9510  -17.3013   43.8545 H   0  0  0  0  0
   16.3169  -17.6988   44.4464 H   0  0  0  0  0
   16.6736  -16.0412   43.8781 H   0  0  0  0  0
   13.3093  -20.0656   40.5117 H   0  0  0  0  0
   10.6129  -19.1890   40.0433 H   0  0  0  0  0
   10.0487  -21.5197   40.9632 H   0  0  0  0  0
   11.7629  -21.7330   41.3916 H   0  0  0  0  0
    9.9579  -20.3048   38.2817 H   0  0  0  0  0
   10.3343  -21.2460   36.0202 H   0  0  0  0  0
   11.8939  -23.1591   35.6643 H   0  0  0  0  0
   13.1009  -24.1169   37.6288 H   0  0  0  0  0
   12.6974  -23.2226   39.8915 H   0  0  0  0  0
    8.9022  -18.8543   41.3475 H   0  0  0  0  0
    7.9693  -16.7634   43.9406 H   0  0  0  0  0
    9.5346  -16.6002   43.0974 H   0  0  0  0  0
   10.7345  -17.4567   45.1699 H   0  0  0  0  0
    9.1675  -17.4889   46.0598 H   0  0  0  0  0
    8.4381  -21.0273   42.6200 H   0  0  0  0  0
    7.1990  -21.2969   43.8363 H   0  0  0  0  0
    8.9173  -22.0812   45.4972 H   0  0  0  0  0
   11.0640  -22.1753   44.6665 H   0  0  0  0  0
    8.4459  -24.8380   41.4713 H   0  0  0  0  0
    9.3818  -25.8433   42.6484 H   0  0  0  0  0
   10.4589  -26.0465   40.4188 H   0  0  0  0  0
   11.5467  -25.0902   41.4670 H   0  0  0  0  0
   10.5158  -24.2768   40.2370 H   0  0  0  0  0
   10.7122  -13.9851   46.4927 H   0  0  0  0  0
   11.2956  -15.6400   46.8828 H   0  0  0  0  0
  1  2  1  0  0  0
  1 12  1  0  0  0
  1 47  1  0  0  0
  2  3  1  0  0  0
  2 11  2  0  0  0
  3  4  1  0  0  0
  4  5  1  0  0  0
  4 48  1  0  0  0
  4 49  1  0  0  0
  5  6  2  0  0  0
  5 10  1  0  0  0
  6  7  1  0  0  0
  6 50  1  0  0  0
  7  8  2  0  0  0
  7 51  1  0  0  0
  8  9  1  0  0  0
  8 52  1  0  0  0
  9 10  2  0  0  0
  9 53  1  0  0  0
 10 54  1  0  0  0
 12 13  1  0  0  0
 12 17  1  0  0  0
 12 55  1  0  0  0
 13 14  1  0  0  0
 13 56  1  0  0  0
 13 57  1  0  0  0
 14 15  1  0  0  0
 14 16  1  0  0  0
 14 58  1  0  0  0
 15 59  1  0  0  0
 15 60  1  0  0  0
 15 61  1  0  0  0
 16 62  1  0  0  0
 16 63  1  0  0  0
 16 64  1  0  0  0
 17 18  2  0  0  0
 17 19  1  0  0  0
 19 20  1  0  0  0
 19 65  1  0  0  0
 20 21  1  0  0  0
 20 28  1  0  0  0
 20 66  1  0  0  0
 21 22  1  0  0  0
 21 67  1  0  0  0
 21 68  1  0  0  0
 22 23  2  0  0  0
 22 27  1  0  0  0
 23 24  1  0  0  0
 23 69  1  0  0  0
 24 25  2  0  0  0
 24 70  1  0  0  0
 25 26  1  0  0  0
 25 71  1  0  0  0
 26 27  2  0  0  0
 26 72  1  0  0  0
 27 73  1  0  0  0
 28 29  2  0  0  0
 28 30  1  0  0  0
 30 31  1  0  0  0
 30 74  1  0  0  0
 31 32  1  0  0  0
 31 37  1  0  0  0
 32 33  1  0  0  0
 32 75  1  0  0  0
 32 76  1  0  0  0
 33 34  1  0  0  0
 33 77  1  0  0  0
 33 78  1  0  0  0
 34 35  1  0  0  0
 34 36  2  0  0  0
 35 88  1  0  0  0
 35 89  1  0  0  0
 37 38  2  0  0  0
 37 39  1  0  0  0
 39 40  1  0  0  0
 39 79  1  0  0  0
 39 80  1  0  0  0
 40 41  1  0  0  0
 40 42  1  0  0  0
 40 81  1  0  0  0
 41 82  1  0  0  0
 42 43  2  0  0  0
 42 44  1  0  0  0
 44 45  1  0  0  0
 45 46  1  0  0  0
 45 83  1  0  0  0
 45 84  1  0  0  0
 46 85  1  0  0  0
 46 86  1  0  0  0
 46 87  1  0  0  0
M  END
$$$$
