51X_1_A_201
  -ISIS-            3D

 21 22  0  0  0  0  0  0  0  0  1 V2000
  -43.2840  -32.0680    2.0780 C   0  0  0  0  0
  -43.6140  -31.3360    0.7790 C   0  0  0  0  0
  -43.5170  -32.7700   -1.2620 C   0  0  0  0  0
  -44.3610  -33.9080   -1.8730 C   0  0  0  0  0
  -44.2780  -34.6430   -2.9370 C   0  0  0  0  0
  -45.2580  -35.6330   -3.2160 C   0  0  0  0  0
  -46.3310  -35.8210   -2.3510 C   0  0  0  0  0
  -46.4870  -34.9660   -1.2380 C   0  0  0  0  0
  -45.4980  -34.0320   -0.9840 C   0  0  0  0  0
  -45.2570  -32.9700    0.0790 C   0  0  0  0  0
  -43.2600  -33.3300    2.1280 O   0  0  0  0  0
  -44.1310  -32.2980   -0.1360 N   0  0  0  0  0
  -45.9110  -32.7650    0.9630 O   0  0  0  0  0
  -42.4920  -32.4180   -1.6660 O   0  0  0  0  0
  -42.9030  -31.3780    3.0120 O   0  0  0  0  0
  -42.6932  -30.8461    0.3891 H   0  0  0  0  0
  -44.3492  -30.5225    0.9753 H   0  0  0  0  0
  -43.4332  -34.5099   -3.6330 H   0  0  0  0  0
  -45.1591  -36.2619   -4.1169 H   0  0  0  0  0
  -47.0756  -36.6097   -2.5502 H   0  0  0  0  0
  -47.3599  -35.0555   -0.5718 H   0  0  0  0  0
  1  2  1  0  0  0
  1 11  2  0  0  0
  1 15  2  0  0  0
  2 12  1  0  0  0
  2 16  1  0  0  0
  2 17  1  0  0  0
  3  4  1  0  0  0
  3 12  1  0  0  0
  3 14  2  0  0  0
  4  5  2  0  0  0
  4  9  1  0  0  0
  5  6  1  0  0  0
  5 18  1  0  0  0
  6  7  2  0  0  0
  6 19  1  0  0  0
  7  8  1  0  0  0
  7 20  1  0  0  0
  8  9  2  0  0  0
  8 21  1  0  0  0
  9 10  1  0  0  0
 10 12  1  0  0  0
 10 13  2  0  0  0
M  END
$$$$
