@<TRIPOS>MOLECULE
51X_1_A_201
 21 22 0 0 0
SMALL
NO_CHARGES

@<TRIPOS>ATOM
      1 C3        -43.2840  -32.0680    2.0780 C.2    201  51X201      0.0000
      2 C4        -43.6140  -31.3360    0.7790 C.3    201  51X201      0.0000
      3 C5        -43.5170  -32.7700   -1.2620 C.2    201  51X201      0.0000
      4 C6        -44.3610  -33.9080   -1.8730 C.ar   201  51X201      0.0000
      5 C7        -44.2780  -34.6430   -2.9370 C.ar   201  51X201      0.0000
      6 C8        -45.2580  -35.6330   -3.2160 C.ar   201  51X201      0.0000
      7 C9        -46.3310  -35.8210   -2.3510 C.ar   201  51X201      0.0000
      8 C10       -46.4870  -34.9660   -1.2380 C.ar   201  51X201      0.0000
      9 C11       -45.4980  -34.0320   -0.9840 C.ar   201  51X201      0.0000
     10 C12       -45.2570  -32.9700    0.0790 C.2    201  51X201      0.0000
     11 O         -43.2600  -33.3300    2.1280 O.co2  201  51X201     -0.5000
     12 N1        -44.1310  -32.2980   -0.1360 N.am   201  51X201      0.0000
     13 O1        -45.9110  -32.7650    0.9630 O.2    201  51X201      0.0000
     14 O2        -42.4920  -32.4180   -1.6660 O.2    201  51X201      0.0000
     15 OXT       -42.9030  -31.3780    3.0120 O.co2  201  51X201     -0.5000
     16 H         -42.6932  -30.8461    0.3891 H      201  51X201      0.0000
     17 H         -44.3492  -30.5225    0.9753 H      201  51X201      0.0000
     18 H         -43.4332  -34.5099   -3.6330 H      201  51X201      0.0000
     19 H         -45.1591  -36.2619   -4.1169 H      201  51X201      0.0000
     20 H         -47.0756  -36.6097   -2.5502 H      201  51X201      0.0000
     21 H         -47.3599  -35.0555   -0.5718 H      201  51X201      0.0000
@<TRIPOS>BOND
     1     1     2    1
     2     1    11   ar
     3     1    15   ar
     4     2    12    1
     5     2    16    1
     6     2    17    1
     7     3     4    1
     8     3    12    1
     9     3    14    2
    10     4     5   ar
    11     4     9   ar
    12     5     6   ar
    13     5    18    1
    14     6     7   ar
    15     6    19    1
    16     7     8   ar
    17     7    20    1
    18     8     9   ar
    19     8    21    1
    20     9    10    1
    21    10    12    1
    22    10    13    2

