EDO_1_B_401
  -ISIS-            3D

 10  9  0  0  0  0  0  0  0  0  1 V2000
   37.1690   -8.2570   28.1790 C   0  0  0  0  0
   37.4130   -7.0410   27.4480 O   0  0  0  0  0
   38.0560   -9.3500   27.5890 C   0  0  0  0  0
   39.4160   -8.9120   27.5380 O   0  0  0  0  0
   36.0959   -8.5264   28.1023 H   0  0  0  0  0
   37.4010   -8.0954   29.2526 H   0  0  0  0  0
   38.3573   -6.9638   27.3688 H   0  0  0  0  0
   37.7137   -9.6052   26.5634 H   0  0  0  0  0
   37.9821  -10.2733   28.2017 H   0  0  0  0  0
   39.9417   -9.6174   27.1851 H   0  0  0  0  0
  1  2  1  0  0  0
  1  3  1  0  0  0
  1  5  1  0  0  0
  1  6  1  0  0  0
  2  7  1  0  0  0
  3  4  1  0  0  0
  3  8  1  0  0  0
  3  9  1  0  0  0
  4 10  1  0  0  0
M  END
$$$$
