@<TRIPOS>MOLECULE
EDO_1_B_402
 10 9 0 0 0
SMALL
NO_CHARGES

@<TRIPOS>ATOM
      1 C1         34.7650    4.3220   11.8010 C.3    402  EDO402      0.0000
      2 O1         33.5280    4.9100   12.2410 O.3    402  EDO402      0.0000
      3 C2         34.5110    3.3250   10.6710 C.3    402  EDO402      0.0000
      4 O2         34.9240    3.9140    9.4200 O.3    402  EDO402      0.0000
      5 H          35.2551    3.8163   12.6602 H      402  EDO402      0.0000
      6 H          35.4531    5.1284   11.4748 H      402  EDO402      0.0000
      7 H          33.1149    4.3196   12.8576 H      402  EDO402      0.0000
      8 H          33.4412    3.0336   10.6208 H      402  EDO402      0.0000
      9 H          35.0986    2.3979   10.8403 H      402  EDO402      0.0000
     10 H          34.6554    3.3372    8.7171 H      402  EDO402      0.0000
@<TRIPOS>BOND
     1     1     2    1
     2     1     3    1
     3     1     5    1
     4     1     6    1
     5     2     7    1
     6     3     4    1
     7     3     8    1
     8     3     9    1
     9     4    10    1

