@<TRIPOS>MOLECULE
IMD_1_A_405
 9 9 0 0 0
SMALL
NO_CHARGES

@<TRIPOS>ATOM
      1 N1          7.4490   30.9600   -1.4740 N.ar   405  IMD405      0.0000
      2 C2          6.9200   30.7740   -0.2630 C.ar   405  IMD405      0.0000
      3 N3          5.7310   30.2280   -0.4140 N.ar   405  IMD405      0.0000
      4 C4          5.4910   30.0450   -1.7430 C.ar   405  IMD405      0.0000
      5 C5          6.5540   30.5200   -2.4080 C.ar   405  IMD405      0.0000
      6 H           8.3701   31.3703   -1.6713 H      405  IMD405      0.0000
      7 H           7.3175   30.9985    0.7350 H      405  IMD405      0.0000
      8 H           4.5495   29.5890   -2.0705 H      405  IMD405      0.0000
      9 H           6.7049   30.5498   -3.4970 H      405  IMD405      0.0000
@<TRIPOS>BOND
     1     1     2   ar
     2     1     5   ar
     3     1     6    1
     4     2     3   ar
     5     2     7    1
     6     3     4   ar
     7     4     5   ar
     8     4     8    1
     9     5     9    1

