IMD_1_A_405
  -ISIS-            3D

  9  9  0  0  0  0  0  0  0  0  1 V2000
    7.4490   30.9600   -1.4740 N   0  0  0  0  0
    6.9200   30.7740   -0.2630 C   0  0  0  0  0
    5.7310   30.2280   -0.4140 N   0  0  0  0  0
    5.4910   30.0450   -1.7430 C   0  0  0  0  0
    6.5540   30.5200   -2.4080 C   0  0  0  0  0
    8.3701   31.3703   -1.6713 H   0  0  0  0  0
    7.3175   30.9985    0.7350 H   0  0  0  0  0
    4.5495   29.5890   -2.0705 H   0  0  0  0  0
    6.7049   30.5498   -3.4970 H   0  0  0  0  0
  1  2  2  0  0  0
  1  5  1  0  0  0
  1  6  1  0  0  0
  2  3  1  0  0  0
  2  7  1  0  0  0
  3  4  1  0  0  0
  4  5  1  0  0  0
  4  8  1  0  0  0
  5  9  1  0  0  0
M  END
$$$$
