@<TRIPOS>MOLECULE
DMS_1_A_404
 10 9 0 0 0
SMALL
NO_CHARGES

@<TRIPOS>ATOM
      1 S          20.9710   14.5880    7.5140 S.o    404  DMS404      0.0000
      2 O          22.2520   15.2690    7.7470 O.2    404  DMS404      0.0000
      3 C1         20.9930   13.1870    8.5880 C.3    404  DMS404      0.0000
      4 C2         21.2050   13.7370    5.9830 C.3    404  DMS404      0.0000
      5 H          20.1386   12.5196    8.3538 H      404  DMS404      0.0000
      6 H          20.9011   13.5280    9.6395 H      404  DMS404      0.0000
      7 H          21.9420   12.6236    8.4738 H      404  DMS404      0.0000
      8 H          20.3495   13.0562    5.7963 H      404  DMS404      0.0000
      9 H          22.1454   13.1485    6.0042 H      404  DMS404      0.0000
     10 H          21.2602   14.4748    5.1564 H      404  DMS404      0.0000
@<TRIPOS>BOND
     1     1     2    2
     2     1     3    1
     3     1     4    1
     4     3     5    1
     5     3     6    1
     6     3     7    1
     7     4     8    1
     8     4     9    1
     9     4    10    1

