@<TRIPOS>MOLECULE
DMS_2_A_402
 10 9 0 0 0
SMALL
NO_CHARGES

@<TRIPOS>ATOM
      1 S          -6.2520   -0.9600    6.0800 S.o    402  DMS402      0.0000
      2 O          -6.9960   -0.7390    7.3280 O.2    402  DMS402      0.0000
      3 C1         -7.4850   -1.0600    4.8270 C.3    402  DMS402      0.0000
      4 C2         -5.7210   -2.6520    6.1080 C.3    402  DMS402      0.0000
      5 H          -7.0206   -1.3623    3.8661 H      402  DMS402      0.0000
      6 H          -7.9602   -0.0663    4.6967 H      402  DMS402      0.0000
      7 H          -8.2639   -1.7991    5.1071 H      402  DMS402      0.0000
      8 H          -5.2813   -2.9233    5.1265 H      402  DMS402      0.0000
      9 H          -6.5779   -3.3221    6.3262 H      402  DMS402      0.0000
     10 H          -4.9501   -2.7822    6.8946 H      402  DMS402      0.0000
@<TRIPOS>BOND
     1     1     2    2
     2     1     3    1
     3     1     4    1
     4     3     5    1
     5     3     6    1
     6     3     7    1
     7     4     8    1
     8     4     9    1
     9     4    10    1

