@<TRIPOS>MOLECULE
SAM_1_A_302
 50 52 0 0 0
SMALL
NO_CHARGES

@<TRIPOS>ATOM
      1 N          60.5760   61.6140   68.5260 N.3    302  SAM302      1.0000
      2 CA         60.2890   60.3340   67.8830 C.3    302  SAM302      0.0000
      3 C          61.4520   59.3590   68.0280 C.2    302  SAM302      0.0000
      4 O          61.6820   58.5050   67.1670 O.co2  302  SAM302     -0.5000
      5 OXT        62.1820   59.4090   69.0250 O.co2  302  SAM302     -0.5000
      6 CB         59.8590   60.5350   66.4260 C.3    302  SAM302      0.0000
      7 CG         58.8950   61.7100   66.2740 C.3    302  SAM302      0.0000
      8 SD         57.9890   61.7250   64.7020 S.3    302  SAM302      0.0000
      9 CE         59.1970   62.5990   63.6870 C.3    302  SAM302      0.0000
     10 C5'        56.7340   63.0110   64.9610 C.3    302  SAM302      0.0000
     11 C4'        55.6910   62.6000   65.9960 C.3    302  SAM302      0.0000
     12 O4'        54.8970   63.7130   66.3820 O.3    302  SAM302      0.0000
     13 C3'        54.7360   61.5410   65.4540 C.3    302  SAM302      0.0000
     14 O3'        54.7940   60.3900   66.2710 O.3    302  SAM302      0.0000
     15 C2'        53.3630   62.1850   65.5400 C.3    302  SAM302      0.0000
     16 O2'        52.3590   61.2840   65.9370 O.3    302  SAM302      0.0000
     17 C1'        53.5700   63.2630   66.5890 C.3    302  SAM302      0.0000
     18 N9         52.5390   64.3300   66.5250 N.ar   302  SAM302      0.0000
     19 C8         52.2120   65.1520   65.4740 C.ar   302  SAM302      0.0000
     20 N7         51.2100   65.9840   65.8680 N.ar   302  SAM302      0.0000
     21 C5         50.8870   65.6990   67.1490 C.ar   302  SAM302      0.0000
     22 C6         49.9490   66.2240   68.0330 C.ar   302  SAM302      0.0000
     23 N6         49.1320   67.2080   67.6680 N.pl3  302  SAM302      0.0000
     24 N1         49.8630   65.7120   69.3060 N.ar   302  SAM302      0.0000
     25 C2         50.6940   64.6940   69.7070 C.ar   302  SAM302      0.0000
     26 N3         51.6210   64.1760   68.8250 N.ar   302  SAM302      0.0000
     27 C4         51.7190   64.6680   67.5710 C.ar   302  SAM302      0.0000
     28 H          61.2993   62.1182   68.0203 H      302  SAM302      0.0000
     29 H          60.9021   61.4729   69.4777 H      302  SAM302      0.0000
     30 H          59.4290   59.8686   68.4259 H      302  SAM302      0.0000
     31 H          59.3787   59.5994   66.0568 H      302  SAM302      0.0000
     32 H          60.7526   60.7130   65.7847 H      302  SAM302      0.0000
     33 H          59.4083   62.6880   66.4050 H      302  SAM302      0.0000
     34 H          58.1251   61.6311   67.0719 H      302  SAM302      0.0000
     35 H          58.7667   62.8143   62.6850 H      302  SAM302      0.0000
     36 H          60.1047   61.9753   63.5379 H      302  SAM302      0.0000
     37 H          59.5124   63.5646   64.1370 H      302  SAM302      0.0000
     38 H          56.2512   63.2614   63.9916 H      302  SAM302      0.0000
     39 H          57.2550   63.9321   65.3045 H      302  SAM302      0.0000
     40 H          56.1895   62.2207   66.9119 H      302  SAM302      0.0000
     41 H          54.9547   61.2702   64.3995 H      302  SAM302      0.0000
     42 H          55.5211   59.8546   65.9831 H      302  SAM302      0.0000
     43 H          53.1007   62.6429   64.5637 H      302  SAM302      0.0000
     44 H          52.7695   60.5906   66.4405 H      302  SAM302      0.0000
     45 H          53.5098   62.8073   67.6016 H      302  SAM302      0.0000
     46 H          52.6262   65.2141   64.4605 H      302  SAM302      0.0000
     47 H          50.6187   64.2894   70.7282 H      302  SAM302      0.0000
     48 H          48.4750   67.5229   68.3926 H      302  SAM302      0.0000
     49 H          49.2184   67.5697   66.7097 H      302  SAM302      0.0000
     50 H          59.7520   62.2028   68.5905 H      302  SAM302      0.0000
@<TRIPOS>BOND
     1     1     2    1
     2     1    28    1
     3     1    29    1
     4     2     3    1
     5     2     6    1
     6     2    30    1
     7     3     4   ar
     8     3     5   ar
     9     6     7    1
    10     6    31    1
    11     6    32    1
    12     7     8    1
    13     7    33    1
    14     7    34    1
    15     8     9    1
    16     8    10    1
    17     9    35    1
    18     9    36    1
    19     9    37    1
    20    10    11    1
    21    10    38    1
    22    10    39    1
    23    11    12    1
    24    11    13    1
    25    11    40    1
    26    12    17    1
    27    13    14    1
    28    13    15    1
    29    13    41    1
    30    14    42    1
    31    15    16    1
    32    15    17    1
    33    15    43    1
    34    16    44    1
    35    17    18    1
    36    17    45    1
    37    18    19   ar
    38    18    27   ar
    39    19    20   ar
    40    19    46    1
    41    20    21   ar
    42    21    22   ar
    43    21    27   ar
    44    22    23    1
    45    22    24   ar
    46    23    48    1
    47    23    49    1
    48    24    25   ar
    49    25    26   ar
    50    25    47    1
    51    26    27   ar
    52     1    50    1

