@<TRIPOS>MOLECULE
GTA_1_A_301
 79 84 0 0 0
SMALL
NO_CHARGES

@<TRIPOS>ATOM
      1 N2         70.7800  -59.6230  -18.5080 N.pl3  301  GTA301      0.0000
      2 O6         70.5930  -57.0990  -14.7050 O.2    301  GTA301      0.0000
      3 C6         69.9840  -57.8360  -15.4710 C.ar   301  GTA301      0.0000
      4 C5         68.6610  -58.2600  -15.3920 C.ar   301  GTA301      0.0000
      5 N7         67.6450  -57.9990  -14.4710 N.ar   301  GTA301      0.0000
      6 C7         67.7440  -57.1620  -13.2790 C.3    301  GTA301      0.0000
      7 C8         66.5520  -58.6490  -14.8650 C.ar   301  GTA301      0.0000
      8 N9         66.7920  -59.3220  -15.9690 N.ar   301  GTA301      0.0000
      9 C4         68.1230  -59.1000  -16.3350 C.ar   301  GTA301      0.0000
     10 N3         68.7560  -59.6030  -17.4080 N.ar   301  GTA301      0.0000
     11 C2         70.0140  -59.2070  -17.4960 C.ar   301  GTA301      0.0000
     12 N1         70.6000  -58.3710  -16.5810 N.ar   301  GTA301      0.0000
     13 O3A        64.5670  -63.2440  -15.2120 O.3    301  GTA301      0.0000
     14 C1A        65.8150  -60.1580  -16.7050 C.3    301  GTA301      0.0000
     15 C2A        65.9970  -61.6440  -16.4190 C.3    301  GTA301      0.0000
     16 C3A        64.9800  -61.8900  -15.3240 C.3    301  GTA301      0.0000
     17 C4A        63.8250  -60.9840  -15.7690 C.3    301  GTA301      0.0000
     18 C5A        62.8740  -60.5370  -14.6830 C.3    301  GTA301      0.0000
     19 O4A        64.4860  -59.8240  -16.3420 O.3    301  GTA301      0.0000
     20 O2A        65.6620  -62.3530  -17.5880 O.3    301  GTA301      0.0000
     21 P1         63.1960  -59.8270  -12.1430 P.3    301  GTA301      0.0000
     22 O11        62.2180  -58.7450  -11.8250 O.co2  301  GTA301      0.0000
     23 O12        62.8510  -61.2370  -11.8040 O.co2  301  GTA301      0.0000
     24 O13        64.5910  -59.4470  -11.4450 O.3    301  GTA301      0.0000
     25 O15        63.5920  -59.7430  -13.6960 O.3    301  GTA301      0.0000
     26 P2         65.9470  -60.2550  -11.1720 P.3    301  GTA301      0.0000
     27 O22        66.9650  -59.3180  -10.6110 O.co2  301  GTA301      0.0000
     28 O21        66.2870  -61.0870  -12.3610 O.co2  301  GTA301      0.0000
     29 O23        65.4910  -61.2610  -10.0170 O.3    301  GTA301      0.0000
     30 P3         66.2160  -62.5440   -9.3880 P.3    301  GTA301      0.0000
     31 O32        67.5290  -62.1150   -8.8210 O.co2  301  GTA301      0.0000
     32 O31        66.2070  -63.6570  -10.3790 O.co2  301  GTA301      0.0000
     33 O33        65.2020  -62.9020   -8.2060 O.3    301  GTA301      0.0000
     34 C5B        64.9930  -61.9720   -7.1200 C.3    301  GTA301      0.0000
     35 C4B        64.4180  -62.7280   -5.9510 C.3    301  GTA301      0.0000
     36 O4B        63.0400  -63.0820   -6.2370 O.3    301  GTA301      0.0000
     37 C3B        65.1010  -64.0600   -5.6350 C.3    301  GTA301      0.0000
     38 O3B        66.2440  -63.8350   -4.8220 O.3    301  GTA301      0.0000
     39 C2B        63.9730  -64.8270   -4.9430 C.3    301  GTA301      0.0000
     40 O2B        63.8350  -64.4860   -3.5810 O.3    301  GTA301      0.0000
     41 C1B        62.7570  -64.3780   -5.7530 C.3    301  GTA301      0.0000
     42 N9C        62.4530  -65.2520   -6.8950 N.ar   301  GTA301      0.0000
     43 C8C        63.0410  -65.2490   -8.1380 C.ar   301  GTA301      0.0000
     44 N7C        62.5490  -66.1720   -8.9330 N.ar   301  GTA301      0.0000
     45 C5C        61.5810  -66.8170   -8.1700 C.ar   301  GTA301      0.0000
     46 C6C        60.7010  -67.8850   -8.4460 C.ar   301  GTA301      0.0000
     47 N6C        60.6520  -68.5210   -9.6110 N.pl3  301  GTA301      0.0000
     48 N1C        59.8630  -68.2760   -7.4560 N.ar   301  GTA301      0.0000
     49 C2C        59.9170  -67.6320   -6.2820 C.ar   301  GTA301      0.0000
     50 N3C        60.7010  -66.6210   -5.9110 N.ar   301  GTA301      0.0000
     51 C4C        61.5190  -66.2560   -6.9130 C.ar   301  GTA301      0.0000
     52 H          66.7612  -57.1195  -12.7603 H      301  GTA301      0.0000
     53 H          68.0442  -56.1331  -13.5756 H      301  GTA301      0.0000
     54 H          68.5048  -57.5912  -12.5907 H      301  GTA301      0.0000
     55 H          65.5660  -58.6582  -14.3898 H      301  GTA301      0.0000
     56 H          65.0078  -63.6313  -14.4672 H      301  GTA301      0.0000
     57 H          65.9582  -59.9514  -17.7877 H      301  GTA301      0.0000
     58 H          67.0280  -61.8968  -16.0986 H      301  GTA301      0.0000
     59 H          65.3827  -61.5268  -14.3607 H      301  GTA301      0.0000
     60 H          63.2479  -61.4943  -16.5705 H      301  GTA301      0.0000
     61 H          62.3974  -61.4253  -14.2208 H      301  GTA301      0.0000
     62 H          62.0598  -59.9178  -15.1141 H      301  GTA301      0.0000
     63 H          65.3642  -63.2134  -17.3158 H      301  GTA301      0.0000
     64 H          64.3120  -61.1566   -7.4408 H      301  GTA301      0.0000
     65 H          65.9553  -61.5075   -6.8190 H      301  GTA301      0.0000
     66 H          64.4279  -62.0777   -5.0495 H      301  GTA301      0.0000
     67 H          65.3888  -64.6051   -6.5579 H      301  GTA301      0.0000
     68 H          66.9933  -63.6862   -5.3834 H      301  GTA301      0.0000
     69 H          64.1272  -65.9230   -5.0302 H      301  GTA301      0.0000
     70 H          64.7142  -64.3732   -3.2380 H      301  GTA301      0.0000
     71 H          61.8512  -64.3451   -5.1120 H      301  GTA301      0.0000
     72 H          63.8285  -64.6098   -8.5422 H      301  GTA301      0.0000
     73 H          59.2123  -67.9917   -5.5125 H      301  GTA301      0.0000
     74 H          71.7576  -59.3145  -18.5727 H      301  GTA301      0.0000
     75 H          70.3057  -60.2473  -19.1713 H      301  GTA301      0.0000
     76 H          59.9628  -69.2809   -9.6696 H      301  GTA301      0.0000
     77 H          61.2962  -68.2069  -10.3479 H      301  GTA301      0.0000
     78 H          71.5828  -58.1482  -16.7745 H      301  GTA301      0.0000
     79 H          61.9629  -58.7617  -10.7228 H      301  GTA301      0.0000
@<TRIPOS>BOND
     1     1    11    1
     2     1    74    1
     3     1    75    1
     4     2     3    2
     5     3     4   ar
     6     3    12   ar
     7     4     5   ar
     8     4     9   ar
     9     5     6    1
    10     5     7   ar
    11     6    52    1
    12     6    53    1
    13     6    54    1
    14     7     8   ar
    15     7    55    1
    16     8     9   ar
    17     8    14    1
    18     9    10   ar
    19    10    11   ar
    20    11    12   ar
    21    12    78    1
    22    13    16    1
    23    13    56    1
    24    14    15    1
    25    14    19    1
    26    14    57    1
    27    15    16    1
    28    15    20    1
    29    15    58    1
    30    16    17    1
    31    16    59    1
    32    17    18    1
    33    17    19    1
    34    17    60    1
    35    18    25    1
    36    18    61    1
    37    18    62    1
    38    20    63    1
    39    21    22    1
    40    21    23    2
    41    21    24    1
    42    21    25    1
    43    24    26    1
    44    26    27    2
    45    26    28    2
    46    26    29    1
    47    29    30    1
    48    30    31    2
    49    30    32    2
    50    30    33    1
    51    33    34    1
    52    34    35    1
    53    34    64    1
    54    34    65    1
    55    35    36    1
    56    35    37    1
    57    35    66    1
    58    36    41    1
    59    37    38    1
    60    37    39    1
    61    37    67    1
    62    38    68    1
    63    39    40    1
    64    39    41    1
    65    39    69    1
    66    40    70    1
    67    41    42    1
    68    41    71    1
    69    42    43   ar
    70    42    51   ar
    71    43    44   ar
    72    43    72    1
    73    44    45   ar
    74    45    46   ar
    75    45    51   ar
    76    46    47    1
    77    46    48   ar
    78    47    76    1
    79    47    77    1
    80    48    49   ar
    81    49    50   ar
    82    49    73    1
    83    50    51   ar
    84    22    79    1

