@<TRIPOS>MOLECULE
SAM_1_A_302
 50 52 0 0 0
SMALL
NO_CHARGES

@<TRIPOS>ATOM
      1 N          60.9960  -65.7760    2.3550 N.3    302  SAM302      1.0000
      2 CA         61.0690  -67.1930    1.8880 C.3    302  SAM302      0.0000
      3 C          62.3090  -67.8600    2.5020 C.2    302  SAM302      0.0000
      4 O          62.6910  -67.5220    3.6230 O.co2  302  SAM302     -0.5000
      5 OXT        62.9530  -68.7400    1.9260 O.co2  302  SAM302     -0.5000
      6 CB         61.1220  -67.2660    0.3550 C.3    302  SAM302      0.0000
      7 CG         59.8490  -66.7610   -0.3180 C.3    302  SAM302      0.0000
      8 SD         59.8920  -66.9880   -2.1100 S.3    302  SAM302      0.0000
      9 CE         61.1130  -65.7680   -2.5630 C.3    302  SAM302      0.0000
     10 C5'        58.3720  -66.1260   -2.5630 C.3    302  SAM302      0.0000
     11 C4'        57.1250  -66.7770   -2.0000 C.3    302  SAM302      0.0000
     12 O4'        55.9860  -65.9340   -2.2740 O.3    302  SAM302      0.0000
     13 C3'        56.7730  -68.1530   -2.5830 C.3    302  SAM302      0.0000
     14 O3'        56.9680  -69.1710   -1.6060 O.3    302  SAM302      0.0000
     15 C2'        55.2990  -68.0210   -3.0070 C.3    302  SAM302      0.0000
     16 O2'        54.5090  -69.1310   -2.6350 O.3    302  SAM302      0.0000
     17 C1'        54.8570  -66.7640   -2.2670 C.3    302  SAM302      0.0000
     18 N9         53.7360  -66.0730   -2.8910 N.ar   302  SAM302      0.0000
     19 C8         53.6650  -65.6050   -4.1800 C.ar   302  SAM302      0.0000
     20 N7         52.5150  -65.0490   -4.4720 N.ar   302  SAM302      0.0000
     21 C5         51.7730  -65.1640   -3.3060 C.ar   302  SAM302      0.0000
     22 C6         50.4610  -64.7670   -2.9750 C.ar   302  SAM302      0.0000
     23 N6         49.6320  -64.1690   -3.8270 N.pl3  302  SAM302      0.0000
     24 N1         50.0260  -65.0360   -1.7200 N.ar   302  SAM302      0.0000
     25 C2         50.8640  -65.6480   -0.8720 C.ar   302  SAM302      0.0000
     26 N3         52.1110  -66.0680   -1.0710 N.ar   302  SAM302      0.0000
     27 C4         52.5150  -65.7940   -2.3230 C.ar   302  SAM302      0.0000
     28 H          61.8031  -65.2471    2.0364 H      302  SAM302      0.0000
     29 H          60.9618  -65.7304    3.3694 H      302  SAM302      0.0000
     30 H          60.1709  -67.7450    2.2544 H      302  SAM302      0.0000
     31 H          61.2827  -68.3260    0.0491 H      302  SAM302      0.0000
     32 H          62.0045  -66.6930   -0.0093 H      302  SAM302      0.0000
     33 H          59.6767  -65.6862   -0.0923 H      302  SAM302      0.0000
     34 H          58.9844  -67.3285    0.0905 H      302  SAM302      0.0000
     35 H          61.1103  -65.6207   -3.6648 H      302  SAM302      0.0000
     36 H          62.1333  -66.1027   -2.2783 H      302  SAM302      0.0000
     37 H          60.9324  -64.7795   -2.0890 H      302  SAM302      0.0000
     38 H          58.3131  -66.0722   -3.6721 H      302  SAM302      0.0000
     39 H          58.4376  -65.0766   -2.1993 H      302  SAM302      0.0000
     40 H          57.2072  -66.8605   -0.8957 H      302  SAM302      0.0000
     41 H          57.3946  -68.3786   -3.4747 H      302  SAM302      0.0000
     42 H          56.2746  -69.8093   -1.7281 H      302  SAM302      0.0000
     43 H          55.2515  -67.8656   -4.1058 H      302  SAM302      0.0000
     44 H          53.6089  -68.9356   -2.8616 H      302  SAM302      0.0000
     45 H          54.5797  -67.0075   -1.2189 H      302  SAM302      0.0000
     46 H          54.4384  -65.6413   -4.9587 H      302  SAM302      0.0000
     47 H          50.4577  -65.8368    0.1367 H      302  SAM302      0.0000
     48 H          48.7006  -63.9484   -3.4534 H      302  SAM302      0.0000
     49 H          49.9829  -63.9777   -4.7741 H      302  SAM302      0.0000
     50 H          60.1578  -65.3214    2.0076 H      302  SAM302      0.0000
@<TRIPOS>BOND
     1     1     2    1
     2     1    28    1
     3     1    29    1
     4     2     3    1
     5     2     6    1
     6     2    30    1
     7     3     4   ar
     8     3     5   ar
     9     6     7    1
    10     6    31    1
    11     6    32    1
    12     7     8    1
    13     7    33    1
    14     7    34    1
    15     8     9    1
    16     8    10    1
    17     9    35    1
    18     9    36    1
    19     9    37    1
    20    10    11    1
    21    10    38    1
    22    10    39    1
    23    11    12    1
    24    11    13    1
    25    11    40    1
    26    12    17    1
    27    13    14    1
    28    13    15    1
    29    13    41    1
    30    14    42    1
    31    15    16    1
    32    15    17    1
    33    15    43    1
    34    16    44    1
    35    17    18    1
    36    17    45    1
    37    18    19   ar
    38    18    27   ar
    39    19    20   ar
    40    19    46    1
    41    20    21   ar
    42    21    22   ar
    43    21    27   ar
    44    22    23    1
    45    22    24   ar
    46    23    48    1
    47    23    49    1
    48    24    25   ar
    49    25    26   ar
    50    25    47    1
    51    26    27   ar
    52     1    50    1

