DMS_1_A_401
  -ISIS-            3D

 10  9  0  0  0  0  0  0  0  0  1 V2000
    7.6100   -1.4980    4.9230 S   0  0  0  0  0
    8.2960   -0.2060    4.6490 O   0  0  0  0  0
    7.3780   -2.4330    3.3880 C   0  0  0  0  0
    5.8810   -1.1990    5.4140 C   0  0  0  0  0
    6.8278   -3.3713    3.6050 H   0  0  0  0  0
    8.3696   -2.6814    2.9575 H   0  0  0  0  0
    6.8032   -1.8238    2.6608 H   0  0  0  0  0
    5.3696   -2.1696    5.5771 H   0  0  0  0  0
    5.3584   -0.6310    4.6173 H   0  0  0  0  0
    5.8650   -0.6132    6.3558 H   0  0  0  0  0
  1  2  2  0  0  0
  1  3  1  0  0  0
  1  4  1  0  0  0
  3  5  1  0  0  0
  3  6  1  0  0  0
  3  7  1  0  0  0
  4  8  1  0  0  0
  4  9  1  0  0  0
  4 10  1  0  0  0
M  END
$$$$
