@<TRIPOS>MOLECULE
EDO_1_A_401
 10 9 0 0 0
SMALL
NO_CHARGES

@<TRIPOS>ATOM
      1 C1         12.2840   -0.0100   38.7290 C.3    401  EDO401      0.0000
      2 O1         12.9720    1.0480   39.4070 O.3    401  EDO401      0.0000
      3 C2         10.8990   -0.1660   39.3450 C.3    401  EDO401      0.0000
      4 O2         10.0940   -0.9950   38.4980 O.3    401  EDO401      0.0000
      5 H          12.8602   -0.9553   38.8129 H      401  EDO401      0.0000
      6 H          12.1999    0.2429   37.6507 H      401  EDO401      0.0000
      7 H          13.8259    1.1475   39.0073 H      401  EDO401      0.0000
      8 H          10.4114    0.8267   39.4486 H      401  EDO401      0.0000
      9 H          10.9703   -0.6145   40.3582 H      401  EDO401      0.0000
     10 H           9.2337   -1.0686   38.8894 H      401  EDO401      0.0000
@<TRIPOS>BOND
     1     1     2    1
     2     1     3    1
     3     1     5    1
     4     1     6    1
     5     2     7    1
     6     3     4    1
     7     3     8    1
     8     3     9    1
     9     4    10    1

