@<TRIPOS>MOLECULE
DMS_1_A_401
 10 9 0 0 0
SMALL
NO_CHARGES

@<TRIPOS>ATOM
      1 S           7.0110  -28.1520   21.4220 S.o    401  DMS401      0.0000
      2 O           7.8360  -27.2150   22.2410 O.2    401  DMS401      0.0000
      3 C1          5.7820  -28.8100   22.5180 C.3    401  DMS401      0.0000
      4 C2          5.9630  -27.1390   20.4300 C.3    401  DMS401      0.0000
      5 H           5.0459  -29.4076   21.9423 H      401  DMS401      0.0000
      6 H           5.2572  -27.9891   23.0485 H      401  DMS401      0.0000
      7 H           6.2712  -29.4681   23.2651 H      401  DMS401      0.0000
      8 H           5.2228  -27.7704   19.8974 H      401  DMS401      0.0000
      9 H           6.5764  -26.5988   19.6801 H      401  DMS401      0.0000
     10 H           5.4296  -26.3982   21.0603 H      401  DMS401      0.0000
@<TRIPOS>BOND
     1     1     2    2
     2     1     3    1
     3     1     4    1
     4     3     5    1
     5     3     6    1
     6     3     7    1
     7     4     8    1
     8     4     9    1
     9     4    10    1

