@<TRIPOS>MOLECULE
DMS_1_A_403
 10 9 0 0 0
SMALL
NO_CHARGES

@<TRIPOS>ATOM
      1 S           2.4460  -18.9390    8.0340 S.o    403  DMS403      0.0000
      2 O           3.7080  -18.7810    8.8960 O.2    403  DMS403      0.0000
      3 C1          1.1550  -18.0440    8.8810 C.3    403  DMS403      0.0000
      4 C2          1.8540  -20.5770    8.3930 C.3    403  DMS403      0.0000
      5 H           0.1764  -18.2527    8.4022 H      403  DMS403      0.0000
      6 H           1.3614  -16.9562    8.8160 H      403  DMS403      0.0000
      7 H           1.1160  -18.3410    9.9493 H      403  DMS403      0.0000
      8 H           0.8561  -20.7260    7.9319 H      403  DMS403      0.0000
      9 H           1.7816  -20.7310    9.4894 H      403  DMS403      0.0000
     10 H           2.5584  -21.3220    7.9698 H      403  DMS403      0.0000
@<TRIPOS>BOND
     1     1     2    2
     2     1     3    1
     3     1     4    1
     4     3     5    1
     5     3     6    1
     6     3     7    1
     7     4     8    1
     8     4     9    1
     9     4    10    1

