DMS_1_A_403
  -ISIS-            3D

 10  9  0  0  0  0  0  0  0  0  1 V2000
    2.4460  -18.9390    8.0340 S   0  0  0  0  0
    3.7080  -18.7810    8.8960 O   0  0  0  0  0
    1.1550  -18.0440    8.8810 C   0  0  0  0  0
    1.8540  -20.5770    8.3930 C   0  0  0  0  0
    0.1764  -18.2527    8.4022 H   0  0  0  0  0
    1.3614  -16.9562    8.8160 H   0  0  0  0  0
    1.1160  -18.3410    9.9493 H   0  0  0  0  0
    0.8561  -20.7260    7.9319 H   0  0  0  0  0
    1.7816  -20.7310    9.4894 H   0  0  0  0  0
    2.5584  -21.3220    7.9698 H   0  0  0  0  0
  1  2  2  0  0  0
  1  3  1  0  0  0
  1  4  1  0  0  0
  3  5  1  0  0  0
  3  6  1  0  0  0
  3  7  1  0  0  0
  4  8  1  0  0  0
  4  9  1  0  0  0
  4 10  1  0  0  0
M  END
$$$$
