@<TRIPOS>MOLECULE
DMS_2_A_405
 10 9 0 0 0
SMALL
NO_CHARGES

@<TRIPOS>ATOM
      1 S          -5.5880    0.5400  -17.9490 S.o    405  DMS405      0.0000
      2 O          -6.8410    1.0800  -17.3270 O.2    405  DMS405      0.0000
      3 C1         -4.8640    1.8660  -18.8850 C.3    405  DMS405      0.0000
      4 C2         -6.1170   -0.4410  -19.3200 C.3    405  DMS405      0.0000
      5 H          -4.0141    1.4830  -19.4860 H      405  DMS405      0.0000
      6 H          -4.4878    2.6426  -18.1880 H      405  DMS405      0.0000
      7 H          -5.6185    2.3213  -19.5588 H      405  DMS405      0.0000
      8 H          -5.2382   -0.7639  -19.9147 H      405  DMS405      0.0000
      9 H          -6.8085    0.1365  -19.9672 H      405  DMS405      0.0000
     10 H          -6.6437   -1.3421  -18.9447 H      405  DMS405      0.0000
@<TRIPOS>BOND
     1     1     2    2
     2     1     3    1
     3     1     4    1
     4     3     5    1
     5     3     6    1
     6     3     7    1
     7     4     8    1
     8     4     9    1
     9     4    10    1

