DMS_2_A_401
  -ISIS-            3D

 10  9  0  0  0  0  0  0  0  0  1 V2000
   -7.0110  -28.1520  -21.4220 S   0  0  0  0  0
   -7.8360  -27.2150  -22.2410 O   0  0  0  0  0
   -5.7820  -28.8100  -22.5180 C   0  0  0  0  0
   -5.9630  -27.1390  -20.4300 C   0  0  0  0  0
   -5.0459  -29.4076  -21.9423 H   0  0  0  0  0
   -5.2572  -27.9891  -23.0485 H   0  0  0  0  0
   -6.2712  -29.4681  -23.2651 H   0  0  0  0  0
   -5.2228  -27.7704  -19.8974 H   0  0  0  0  0
   -6.5764  -26.5988  -19.6801 H   0  0  0  0  0
   -5.4296  -26.3982  -21.0603 H   0  0  0  0  0
  1  2  2  0  0  0
  1  3  1  0  0  0
  1  4  1  0  0  0
  3  5  1  0  0  0
  3  6  1  0  0  0
  3  7  1  0  0  0
  4  8  1  0  0  0
  4  9  1  0  0  0
  4 10  1  0  0  0
M  END
$$$$
