@<TRIPOS>MOLECULE
DMS_1_B_705
 10 9 0 0 0
SMALL
NO_CHARGES

@<TRIPOS>ATOM
      1 S           6.9710   -8.5550    8.6640 S.o    705  DMS705      0.0000
      2 O           5.8650   -8.3100    7.6970 O.2    705  DMS705      0.0000
      3 C1          7.1730   -7.1460    9.7230 C.3    705  DMS705      0.0000
      4 C2          6.5460   -9.7950    9.9060 C.3    705  DMS705      0.0000
      5 H           7.9836   -7.3390   10.4551 H      705  DMS705      0.0000
      6 H           6.2275   -6.9378   10.2645 H      705  DMS705      0.0000
      7 H           7.4433   -6.2610    9.1114 H      705  DMS705      0.0000
      8 H           7.3834   -9.9060   10.6249 H      705  DMS705      0.0000
      9 H           6.3661  -10.7677    9.4042 H      705  DMS705      0.0000
     10 H           5.6278   -9.4879   10.4474 H      705  DMS705      0.0000
@<TRIPOS>BOND
     1     1     2    2
     2     1     3    1
     3     1     4    1
     4     3     5    1
     5     3     6    1
     6     3     7    1
     7     4     8    1
     8     4     9    1
     9     4    10    1

