DMS_1_B_704
  -ISIS-            3D

 10  9  0  0  0  0  0  0  0  0  1 V2000
   -7.1450    3.5170   11.8010 S   0  0  0  0  0
   -8.3160    3.2580   10.9490 O   0  0  0  0  0
   -7.1420    5.1480   12.6080 C   0  0  0  0  0
   -5.6120    3.6770   10.8180 C   0  0  0  0  0
   -6.2284    5.2548   13.2278 H   0  0  0  0  0
   -8.0369    5.2331   13.2581 H   0  0  0  0  0
   -7.1690    5.9472   11.8394 H   0  0  0  0  0
   -4.7532    3.8581   11.4960 H   0  0  0  0  0
   -5.7108    4.5204   10.1042 H   0  0  0  0  0
   -5.4417    2.7362   10.2552 H   0  0  0  0  0
  1  2  2  0  0  0
  1  3  1  0  0  0
  1  4  1  0  0  0
  3  5  1  0  0  0
  3  6  1  0  0  0
  3  7  1  0  0  0
  4  8  1  0  0  0
  4  9  1  0  0  0
  4 10  1  0  0  0
M  END
$$$$
