DMS_1_A_406
  -ISIS-            3D

 10  9  0  0  0  0  0  0  0  0  1 V2000
   11.6880    3.4490   33.9720 S   0  0  0  0  0
   12.3190    3.5170   32.6160 O   0  0  0  0  0
   10.0820    4.2960   33.9090 C   0  0  0  0  0
   12.5800    4.5330   35.1190 C   0  0  0  0  0
    9.6313    4.3118   34.9223 H   0  0  0  0  0
    9.4079    3.7503   33.2175 H   0  0  0  0  0
   10.2188    5.3351   33.5457 H   0  0  0  0  0
   12.0643    4.5388   36.1010 H   0  0  0  0  0
   12.6164    5.5639   34.7111 H   0  0  0  0  0
   13.6138    4.1535   35.2514 H   0  0  0  0  0
  1  2  2  0  0  0
  1  3  1  0  0  0
  1  4  1  0  0  0
  3  5  1  0  0  0
  3  6  1  0  0  0
  3  7  1  0  0  0
  4  8  1  0  0  0
  4  9  1  0  0  0
  4 10  1  0  0  0
M  END
$$$$
