@<TRIPOS>MOLECULE
DMS_1_A_406
 10 9 0 0 0
SMALL
NO_CHARGES

@<TRIPOS>ATOM
      1 S          11.6880    3.4490   33.9720 S.o    406  DMS406      0.0000
      2 O          12.3190    3.5170   32.6160 O.2    406  DMS406      0.0000
      3 C1         10.0820    4.2960   33.9090 C.3    406  DMS406      0.0000
      4 C2         12.5800    4.5330   35.1190 C.3    406  DMS406      0.0000
      5 H           9.6313    4.3118   34.9223 H      406  DMS406      0.0000
      6 H           9.4079    3.7503   33.2175 H      406  DMS406      0.0000
      7 H          10.2188    5.3351   33.5457 H      406  DMS406      0.0000
      8 H          12.0643    4.5388   36.1010 H      406  DMS406      0.0000
      9 H          12.6164    5.5639   34.7111 H      406  DMS406      0.0000
     10 H          13.6138    4.1535   35.2514 H      406  DMS406      0.0000
@<TRIPOS>BOND
     1     1     2    2
     2     1     3    1
     3     1     4    1
     4     3     5    1
     5     3     6    1
     6     3     7    1
     7     4     8    1
     8     4     9    1
     9     4    10    1

