@<TRIPOS>MOLECULE
DMS_1_A_407
 10 9 0 0 0
SMALL
NO_CHARGES

@<TRIPOS>ATOM
      1 S           0.1600  -14.1280   19.2070 S.o    407  DMS407      0.0000
      2 O          -0.3910  -12.7780   19.5510 O.2    407  DMS407      0.0000
      3 C1          0.4260  -14.3830   17.4310 C.3    407  DMS407      0.0000
      4 C2          1.8320  -14.3430   19.8600 C.3    407  DMS407      0.0000
      5 H           0.8283  -15.4019   17.2584 H      407  DMS407      0.0000
      6 H           1.1427  -13.6280   17.0473 H      407  DMS407      0.0000
      7 H          -0.5414  -14.2762   16.8990 H      407  DMS407      0.0000
      8 H           2.2044  -15.3552   19.6020 H      407  DMS407      0.0000
      9 H           1.8102  -14.2321   20.9635 H      407  DMS407      0.0000
     10 H           2.5059  -13.5758   19.4263 H      407  DMS407      0.0000
@<TRIPOS>BOND
     1     1     2    2
     2     1     3    1
     3     1     4    1
     4     3     5    1
     5     3     6    1
     6     3     7    1
     7     4     8    1
     8     4     9    1
     9     4    10    1

