@<TRIPOS>MOLECULE
DMS_1_A_401
 10 9 0 0 0
SMALL
NO_CHARGES

@<TRIPOS>ATOM
      1 S         -21.4230  -10.4270    8.8180 S.o    401  DMS401      0.0000
      2 O         -20.2120  -10.0890    8.0260 O.2    401  DMS401      0.0000
      3 C1        -22.3110  -11.8360    8.0850 C.3    401  DMS401      0.0000
      4 C2        -22.5300   -9.0110    8.6310 C.3    401  DMS401      0.0000
      5 H         -23.2511  -12.0108    8.6470 H      401  DMS401      0.0000
      6 H         -21.6726  -12.7411    8.1435 H      401  DMS401      0.0000
      7 H         -22.5468  -11.6165    7.0236 H      401  DMS401      0.0000
      8 H         -23.4768   -9.2098    9.1735 H      401  DMS401      0.0000
      9 H         -22.7474   -8.8442    7.5561 H      401  DMS401      0.0000
     10 H         -22.0474   -8.1071    9.0558 H      401  DMS401      0.0000
@<TRIPOS>BOND
     1     1     2    2
     2     1     3    1
     3     1     4    1
     4     3     5    1
     5     3     6    1
     6     3     7    1
     7     4     8    1
     8     4     9    1
     9     4    10    1

