DMS_1_A_401
  -ISIS-            3D

 10  9  0  0  0  0  0  0  0  0  1 V2000
    6.9920  -28.0720   21.5120 S   0  0  0  0  0
    7.6860  -27.0190   22.2610 O   0  0  0  0  0
    5.6810  -28.6490   22.5680 C   0  0  0  0  0
    6.0050  -27.2570   20.2990 C   0  0  0  0  0
    5.0321  -29.3547   22.0099 H   0  0  0  0  0
    5.0728  -27.7953   22.9306 H   0  0  0  0  0
    6.1181  -29.1775   23.4397 H   0  0  0  0  0
    5.3495  -27.9931   19.7897 H   0  0  0  0  0
    6.6659  -26.7853   19.5434 H   0  0  0  0  0
    5.3799  -26.4719   20.7711 H   0  0  0  0  0
  1  2  2  0  0  0
  1  3  1  0  0  0
  1  4  1  0  0  0
  3  5  1  0  0  0
  3  6  1  0  0  0
  3  7  1  0  0  0
  4  8  1  0  0  0
  4  9  1  0  0  0
  4 10  1  0  0  0
M  END
$$$$
