@<TRIPOS>MOLECULE
DMS_2_A_401
 10 9 0 0 0
SMALL
NO_CHARGES

@<TRIPOS>ATOM
      1 S          -6.9920  -28.0720  -21.5120 S.o    401  DMS401      0.0000
      2 O          -7.6860  -27.0190  -22.2610 O.2    401  DMS401      0.0000
      3 C1         -5.6810  -28.6490  -22.5680 C.3    401  DMS401      0.0000
      4 C2         -6.0050  -27.2570  -20.2990 C.3    401  DMS401      0.0000
      5 H          -5.0321  -29.3547  -22.0099 H      401  DMS401      0.0000
      6 H          -5.0728  -27.7953  -22.9306 H      401  DMS401      0.0000
      7 H          -6.1181  -29.1775  -23.4397 H      401  DMS401      0.0000
      8 H          -5.3495  -27.9931  -19.7897 H      401  DMS401      0.0000
      9 H          -6.6659  -26.7853  -19.5434 H      401  DMS401      0.0000
     10 H          -5.3799  -26.4719  -20.7711 H      401  DMS401      0.0000
@<TRIPOS>BOND
     1     1     2    2
     2     1     3    1
     3     1     4    1
     4     3     5    1
     5     3     6    1
     6     3     7    1
     7     4     8    1
     8     4     9    1
     9     4    10    1

