DMS_1_A_403
  -ISIS-            3D

 10  9  0  0  0  0  0  0  0  0  1 V2000
    2.4730  -18.7470    8.0350 S   0  0  0  0  0
    3.7240  -18.8560    8.9200 O   0  0  0  0  0
    1.1860  -18.1020    9.0850 C   0  0  0  0  0
    1.8500  -20.4060    7.9610 C   0  0  0  0  0
    0.2084  -18.1638    8.5647 H   0  0  0  0  0
    1.4019  -17.0385    9.3146 H   0  0  0  0  0
    1.1373  -18.6726   10.0350 H   0  0  0  0  0
    0.8518  -20.4133    7.4775 H   0  0  0  0  0
    1.7706  -20.8384    8.9795 H   0  0  0  0  0
    2.5417  -21.0297    7.3587 H   0  0  0  0  0
  1  2  2  0  0  0
  1  3  1  0  0  0
  1  4  1  0  0  0
  3  5  1  0  0  0
  3  6  1  0  0  0
  3  7  1  0  0  0
  4  8  1  0  0  0
  4  9  1  0  0  0
  4 10  1  0  0  0
M  END
$$$$
