@<TRIPOS>MOLECULE
DMS_1_A_402
 10 9 0 0 0
SMALL
NO_CHARGES

@<TRIPOS>ATOM
      1 S           6.1190   -0.9690   -6.2310 S.o    402  DMS402      0.0000
      2 O           7.0990   -0.6890   -7.3150 O.2    402  DMS402      0.0000
      3 C1          7.0580   -0.9180   -4.7110 C.3    402  DMS402      0.0000
      4 C2          5.8410   -2.7210   -6.2640 C.3    402  DMS402      0.0000
      5 H           6.4271   -1.2666   -3.8678 H      402  DMS402      0.0000
      6 H           7.3759    0.1262   -4.5129 H      402  DMS402      0.0000
      7 H           7.9583   -1.5612   -4.7908 H      402  DMS402      0.0000
      8 H           5.2397   -3.0237   -5.3824 H      402  DMS402      0.0000
      9 H           6.8065   -3.2673   -6.2580 H      402  DMS402      0.0000
     10 H           5.2826   -2.9859   -7.1852 H      402  DMS402      0.0000
@<TRIPOS>BOND
     1     1     2    2
     2     1     3    1
     3     1     4    1
     4     3     5    1
     5     3     6    1
     6     3     7    1
     7     4     8    1
     8     4     9    1
     9     4    10    1

