@<TRIPOS>MOLECULE
BXW_1_A_201
 20 21 0 0 0
SMALL
NO_CHARGES

@<TRIPOS>ATOM
      1 O19       -45.7000  -29.4640    2.8750 O.co2  201  BXW201     -0.5000
      2 C20       -46.9260  -29.2070    2.8200 C.2    201  BXW201      0.0000
      3 C21       -47.7470  -29.1430    4.0740 C.ar   201  BXW201      0.0000
      4 O22       -47.4960  -29.0170    1.7410 O.co2  201  BXW201     -0.5000
      5 C23       -47.0620  -29.1090    5.2980 C.ar   201  BXW201      0.0000
      6 C24       -47.7910  -29.0690    6.4670 C.ar   201  BXW201      0.0000
      7 C25       -49.1390  -29.1350    4.0220 C.ar   201  BXW201      0.0000
      8 C26       -49.8750  -29.0880    5.2110 C.ar   201  BXW201      0.0000
      9 C27       -49.1850  -29.0620    6.4080 C.ar   201  BXW201      0.0000
     10 N28       -49.9600  -29.0180    7.7690 N.am   201  BXW201      0.0000
     11 C29       -51.3620  -29.5620    7.8970 C.2    201  BXW201      0.0000
     12 C30       -51.8790  -30.1330    6.5860 C.3    201  BXW201      0.0000
     13 S31       -51.6230  -29.0950    5.2500 S.3    201  BXW201      0.0000
     14 O32       -51.9190  -29.5330    8.9160 O.2    201  BXW201      0.0000
     15 H         -45.9604  -29.1160    5.3401 H      201  BXW201      0.0000
     16 H         -47.2720  -29.0454    7.4391 H      201  BXW201      0.0000
     17 H         -49.6673  -29.1681    3.0552 H      201  BXW201      0.0000
     18 H         -49.4523  -28.6197    8.5680 H      201  BXW201      0.0000
     19 H         -52.9661  -30.3457    6.6971 H      201  BXW201      0.0000
     20 H         -51.3973  -31.1219    6.4125 H      201  BXW201      0.0000
@<TRIPOS>BOND
     1     1     2   ar
     2     2     3    1
     3     2     4   ar
     4     3     5   ar
     5     3     7   ar
     6     5     6   ar
     7     5    15    1
     8     6     9   ar
     9     6    16    1
    10     7     8   ar
    11     7    17    1
    12     8     9   ar
    13     8    13    1
    14     9    10    1
    15    10    11    1
    16    10    18    1
    17    11    12    1
    18    11    14    2
    19    12    13    1
    20    12    19    1
    21    12    20    1

