@<TRIPOS>MOLECULE
A82_1_A_401
 53 56 0 0 0
SMALL
NO_CHARGES

@<TRIPOS>ATOM
      1 C1         21.7770  -26.0440   17.7490 C.ar   401  A82401      0.0000
      2 C2         21.5280  -25.7750   19.0990 C.ar   401  A82401      0.0000
      3 N3         22.0150  -24.6850   19.6740 N.ar   401  A82401      0.0000
      4 C4         22.7680  -23.7990   18.9640 C.ar   401  A82401      0.0000
      5 N5         23.3210  -22.5570   19.6460 N.ar   401  A82401      0.0000
      6 C6         23.0600  -22.2930   21.0210 C.ar   401  A82401      0.0000
      7 C7         22.2550  -23.2270   21.7860 C.ar   401  A82401      0.0000
      8 C8         21.7230  -24.4350   21.1260 C.ar   401  A82401      0.0000
      9 O9         21.0640  -25.2130   21.7410 O.2    401  A82401      0.0000
     10 N10        23.6290  -21.0850   21.5940 N.pl3  401  A82401      0.0000
     11 C11        23.4780  -20.6400   22.9590 C.3    401  A82401      0.0000
     12 C12        24.7930  -20.1810   23.5950 C.3    401  A82401      0.0000
     13 O13        25.4980  -19.2590   22.7980 O.3    401  A82401      0.0000
     14 C14        25.7280  -19.7680   21.5060 C.3    401  A82401      0.0000
     15 C15        24.4210  -20.1620   20.8190 C.3    401  A82401      0.0000
     16 C16        23.0580  -23.9990   17.6190 C.ar   401  A82401      0.0000
     17 C17        22.5570  -25.1400   16.9800 C.ar   401  A82401      0.0000
     18 C18        23.9020  -22.9820   16.8520 C.3    401  A82401      0.0000
     19 C19        25.3350  -23.5010   16.7110 C.3    401  A82401      0.0000
     20 C20        21.2050  -27.3020   17.1000 C.3    401  A82401      0.0000
     21 N21        23.3370  -22.7700   15.5260 N.pl3  401  A82401      0.0000
     22 C22        22.1550  -21.9470   15.3330 C.ar   401  A82401      0.0000
     23 C23        20.5130  -20.9900   13.8610 C.ar   401  A82401      0.0000
     24 C24        21.6390  -21.7740   14.0580 C.ar   401  A82401      0.0000
     25 C25        19.8990  -20.3770   14.9390 C.ar   401  A82401      0.0000
     26 C26        21.5370  -21.3310   16.4100 C.ar   401  A82401      0.0000
     27 C27        20.4110  -20.5460   16.2150 C.ar   401  A82401      0.0000
     28 C28        22.3090  -22.4440   12.8610 C.2    401  A82401      0.0000
     29 O29        23.2520  -23.2590   13.0450 O.co2  401  A82401     -0.5000
     30 O30        21.9190  -22.1770   11.6920 O.co2  401  A82401     -0.5000
     31 H          20.9252  -26.4552   19.7182 H      401  A82401      0.0000
     32 H          22.0115  -23.0896   22.8485 H      401  A82401      0.0000
     33 H          22.9707  -21.4355   23.5257 H      401  A82401      0.0000
     34 H          22.8567  -19.7371   22.7924 H      401  A82401      0.0000
     35 H          25.4386  -21.0617   23.8022 H      401  A82401      0.0000
     36 H          24.5839  -19.7097   24.5789 H      401  A82401      0.0000
     37 H          26.4155  -20.6394   21.5586 H      401  A82401      0.0000
     38 H          26.2466  -18.9908   20.9055 H      401  A82401      0.0000
     39 H          23.7578  -19.2738   20.8284 H      401  A82401      0.0000
     40 H          24.5659  -20.6117   19.8225 H      401  A82401      0.0000
     41 H          22.7593  -25.3316   15.9145 H      401  A82401      0.0000
     42 H          23.9611  -22.0156   17.4023 H      401  A82401      0.0000
     43 H          25.9808  -22.7789   16.1623 H      401  A82401      0.0000
     44 H          25.3820  -24.4696   16.1645 H      401  A82401      0.0000
     45 H          25.8064  -23.6651   17.7062 H      401  A82401      0.0000
     46 H          21.4843  -27.3821   16.0266 H      401  A82401      0.0000
     47 H          20.0939  -27.3078   17.1575 H      401  A82401      0.0000
     48 H          21.5780  -28.2169   17.6115 H      401  A82401      0.0000
     49 H          23.8564  -23.2089   14.7660 H      401  A82401      0.0000
     50 H          20.0951  -20.8462   12.8506 H      401  A82401      0.0000
     51 H          19.0024  -19.7534   14.7833 H      401  A82401      0.0000
     52 H          21.9141  -21.4450   17.4366 H      401  A82401      0.0000
     53 H          19.9229  -20.0576   17.0754 H      401  A82401      0.0000
@<TRIPOS>BOND
     1     1     2   ar
     2     1    17   ar
     3     1    20    1
     4     2     3   ar
     5     2    31    1
     6     3     4   ar
     7     3     8   ar
     8     4     5   ar
     9     4    16   ar
    10     5     6   ar
    11     6     7   ar
    12     6    10    1
    13     7     8   ar
    14     7    32    1
    15     8     9    2
    16    10    11    1
    17    10    15    1
    18    11    12    1
    19    11    33    1
    20    11    34    1
    21    12    13    1
    22    12    35    1
    23    12    36    1
    24    13    14    1
    25    14    15    1
    26    14    37    1
    27    14    38    1
    28    15    39    1
    29    15    40    1
    30    16    17   ar
    31    16    18    1
    32    17    41    1
    33    18    19    1
    34    18    21    1
    35    18    42    1
    36    19    43    1
    37    19    44    1
    38    19    45    1
    39    20    46    1
    40    20    47    1
    41    20    48    1
    42    21    22    1
    43    21    49    1
    44    22    24   ar
    45    22    26   ar
    46    23    24   ar
    47    23    25   ar
    48    23    50    1
    49    24    28    1
    50    25    27   ar
    51    25    51    1
    52    26    27   ar
    53    26    52    1
    54    27    53    1
    55    28    29   ar
    56    28    30   ar

