@<TRIPOS>MOLECULE
DMS_2_A_405
 10 9 0 0 0
SMALL
NO_CHARGES

@<TRIPOS>ATOM
      1 S          -2.2710  -19.0090   -7.9790 S.o    405  DMS405      0.0000
      2 O          -2.0000  -20.4800   -7.9070 O.2    405  DMS405      0.0000
      3 C1         -3.7670  -18.7330   -8.9720 C.3    405  DMS405      0.0000
      4 C2         -1.0360  -18.2310   -9.0580 C.3    405  DMS405      0.0000
      5 H          -3.9333  -17.6435   -9.0972 H      405  DMS405      0.0000
      6 H          -4.6388  -19.1781   -8.4504 H      405  DMS405      0.0000
      7 H          -3.6515  -19.2093   -9.9671 H      405  DMS405      0.0000
      8 H          -1.2756  -17.1550   -9.1805 H      405  DMS405      0.0000
      9 H          -1.0357  -18.7281  -10.0497 H      405  DMS405      0.0000
     10 H          -0.0325  -18.3315   -8.5964 H      405  DMS405      0.0000
@<TRIPOS>BOND
     1     1     2    2
     2     1     3    1
     3     1     4    1
     4     3     5    1
     5     3     6    1
     6     3     7    1
     7     4     8    1
     8     4     9    1
     9     4    10    1

