@<TRIPOS>MOLECULE
DMS_2_A_404
 10 9 0 0 0
SMALL
NO_CHARGES

@<TRIPOS>ATOM
      1 S          -7.3770  -28.3330  -21.1940 S.o    404  DMS404      0.0000
      2 O          -8.1200  -27.4420  -22.1290 O.2    404  DMS404      0.0000
      3 C1         -6.1760  -29.3180  -22.1350 C.3    404  DMS404      0.0000
      4 C2         -6.2520  -27.3440  -20.1690 C.3    404  DMS404      0.0000
      5 H          -5.5763  -29.9372  -21.4370 H      404  DMS404      0.0000
      6 H          -5.5047  -28.6457  -22.7077 H      404  DMS404      0.0000
      7 H          -6.7190  -29.9819  -22.8384 H      404  DMS404      0.0000
      8 H          -5.6518  -28.0162  -19.5224 H      404  DMS404      0.0000
      9 H          -6.8464  -26.6582  -19.5313 H      404  DMS404      0.0000
     10 H          -5.5764  -26.7499  -20.8179 H      404  DMS404      0.0000
@<TRIPOS>BOND
     1     1     2    2
     2     1     3    1
     3     1     4    1
     4     3     5    1
     5     3     6    1
     6     3     7    1
     7     4     8    1
     8     4     9    1
     9     4    10    1

