DMS_2_A_405
  -ISIS-            3D

 10  9  0  0  0  0  0  0  0  0  1 V2000
   -2.2710  -19.0090   -7.9790 S   0  0  0  0  0
   -2.0000  -20.4800   -7.9070 O   0  0  0  0  0
   -3.7670  -18.7330   -8.9720 C   0  0  0  0  0
   -1.0360  -18.2310   -9.0580 C   0  0  0  0  0
   -3.9333  -17.6435   -9.0972 H   0  0  0  0  0
   -4.6388  -19.1781   -8.4504 H   0  0  0  0  0
   -3.6515  -19.2093   -9.9671 H   0  0  0  0  0
   -1.2756  -17.1550   -9.1805 H   0  0  0  0  0
   -1.0357  -18.7281  -10.0497 H   0  0  0  0  0
   -0.0325  -18.3315   -8.5964 H   0  0  0  0  0
  1  2  2  0  0  0
  1  3  1  0  0  0
  1  4  1  0  0  0
  3  5  1  0  0  0
  3  6  1  0  0  0
  3  7  1  0  0  0
  4  8  1  0  0  0
  4  9  1  0  0  0
  4 10  1  0  0  0
M  END
$$$$
