@<TRIPOS>MOLECULE
DMS_1_A_404
 10 9 0 0 0
SMALL
NO_CHARGES

@<TRIPOS>ATOM
      1 S         -23.6330   18.3190   79.5230 S.o    404  DMS404      0.0000
      2 O         -22.2160   17.9550   79.8290 O.2    404  DMS404      0.0000
      3 C1        -23.6630   19.4090   78.0820 C.3    404  DMS404      0.0000
      4 C2        -24.5220   16.8960   78.8330 C.3    404  DMS404      0.0000
      5 H         -24.7136   19.6391   77.8110 H      404  DMS404      0.0000
      6 H         -23.1563   18.9181   77.2259 H      404  DMS404      0.0000
      7 H         -23.1355   20.3534   78.3274 H      404  DMS404      0.0000
      8 H         -25.5483   17.2027   78.5450 H      404  DMS404      0.0000
      9 H         -24.5819   16.0971   79.6001 H      404  DMS404      0.0000
     10 H         -23.9837   16.5103   77.9430 H      404  DMS404      0.0000
@<TRIPOS>BOND
     1     1     2    2
     2     1     3    1
     3     1     4    1
     4     3     5    1
     5     3     6    1
     6     3     7    1
     7     4     8    1
     8     4     9    1
     9     4    10    1

