DMS_2_A_403
  -ISIS-            3D

 10  9  0  0  0  0  0  0  0  0  1 V2000
  -26.2450   32.5010   39.8930 S   0  0  0  0  0
  -25.4680   33.4900   40.7020 O   0  0  0  0  0
  -28.0220   32.7850   40.1070 C   0  0  0  0  0
  -26.0730   32.9220   38.1390 C   0  0  0  0  0
  -28.5901   32.0990   39.4460 H   0  0  0  0  0
  -28.2687   33.8363   39.8534 H   0  0  0  0  0
  -28.2990   32.5874   41.1627 H   0  0  0  0  0
  -26.6961   32.2360   37.5295 H   0  0  0  0  0
  -25.0106   32.8130   37.8393 H   0  0  0  0  0
  -26.3968   33.9693   37.9692 H   0  0  0  0  0
  1  2  2  0  0  0
  1  3  1  0  0  0
  1  4  1  0  0  0
  3  5  1  0  0  0
  3  6  1  0  0  0
  3  7  1  0  0  0
  4  8  1  0  0  0
  4  9  1  0  0  0
  4 10  1  0  0  0
M  END
$$$$
