@<TRIPOS>MOLECULE
DMS_1_A_403
 10 9 0 0 0
SMALL
NO_CHARGES

@<TRIPOS>ATOM
      1 S         -16.2870   32.5010   54.4380 S.o    403  DMS403      0.0000
      2 O         -17.0640   33.4900   53.6290 O.2    403  DMS403      0.0000
      3 C1        -14.5100   32.7850   54.2240 C.3    403  DMS403      0.0000
      4 C2        -16.4590   32.9220   56.1920 C.3    403  DMS403      0.0000
      5 H         -13.9419   32.0990   54.8850 H      403  DMS403      0.0000
      6 H         -14.2633   33.8363   54.4776 H      403  DMS403      0.0000
      7 H         -14.2330   32.5874   53.1683 H      403  DMS403      0.0000
      8 H         -15.8359   32.2360   56.8015 H      403  DMS403      0.0000
      9 H         -17.5214   32.8130   56.4917 H      403  DMS403      0.0000
     10 H         -16.1352   33.9693   56.3619 H      403  DMS403      0.0000
@<TRIPOS>BOND
     1     1     2    2
     2     1     3    1
     3     1     4    1
     4     3     5    1
     5     3     6    1
     6     3     7    1
     7     4     8    1
     8     4     9    1
     9     4    10    1

