@<TRIPOS>MOLECULE
DMS_2_A_401
 10 9 0 0 0
SMALL
NO_CHARGES

@<TRIPOS>ATOM
      1 S         -29.6840    9.0810   21.2750 S.o    401  DMS401      0.0000
      2 O         -29.0340    8.8960   19.9140 O.2    401  DMS401      0.0000
      3 C1        -29.6350   10.8360   21.7360 C.3    401  DMS401      0.0000
      4 C2        -28.5810    8.5250   22.6010 C.3    401  DMS401      0.0000
      5 H         -30.0419   10.9667   22.7596 H      401  DMS401      0.0000
      6 H         -30.2572   11.4150   21.0233 H      401  DMS401      0.0000
      7 H         -28.5921   11.2117   21.6959 H      401  DMS401      0.0000
      8 H         -29.0367    8.7488   23.5872 H      401  DMS401      0.0000
      9 H         -27.5984    9.0328   22.5177 H      401  DMS401      0.0000
     10 H         -28.4319    7.4295   22.5122 H      401  DMS401      0.0000
@<TRIPOS>BOND
     1     1     2    2
     2     1     3    1
     3     1     4    1
     4     3     5    1
     5     3     6    1
     6     3     7    1
     7     4     8    1
     8     4     9    1
     9     4    10    1

