@<TRIPOS>MOLECULE
FMT_1_E_804
 3 2 0 0 0
SMALL
NO_CHARGES

@<TRIPOS>ATOM
      1 C          36.8160   51.4420    0.6330 C.2    804  FMT804      0.0000
      2 O1         36.4660   50.3570    1.0960 O.2    804  FMT804      0.0000
      3 O2         36.0900   52.4330    0.5690 O.2    804  FMT804     -0.5000
@<TRIPOS>BOND
     1     1     2   ar
     2     1     3   ar

