@<TRIPOS>MOLECULE
AQO_1_A_201
 19 20 0 0 0
SMALL
NO_CHARGES

@<TRIPOS>ATOM
      1 C1         12.7530   23.5230    8.0340 C.ar   201  AQO201      0.0000
      2 C2         11.9700   22.3760    7.8970 C.ar   201  AQO201      0.0000
      3 C3         10.9990   22.0990    8.8430 C.ar   201  AQO201      0.0000
      4 C4         10.8060   22.9700    9.9360 C.ar   201  AQO201      0.0000
      5 N5          9.7560   22.6340   10.9300 N.ar   201  AQO201      0.0000
      6 C6          9.5290   23.5160   12.0680 C.ar   201  AQO201      0.0000
      7 N7          8.4970   23.1790   13.0230 N.3    201  AQO201      0.0000
      8 N8         10.3370   24.6990   12.2330 N.ar   201  AQO201      0.0000
      9 C9         11.3480   25.0270   11.2750 C.ar   201  AQO201      0.0000
     10 O10        11.9970   26.0100   11.4330 O.2    201  AQO201      0.0000
     11 C11        11.5790   24.0980   10.0790 C.ar   201  AQO201      0.0000
     12 C12        12.5650   24.3770    9.1100 C.ar   201  AQO201      0.0000
     13 H          13.5271   23.7507    7.2817 H      201  AQO201      0.0000
     14 H          12.1240   21.6975    7.0412 H      201  AQO201      0.0000
     15 H          10.3725   21.1969    8.7466 H      201  AQO201      0.0000
     16 H           8.3571   23.8117   13.8203 H      201  AQO201      0.0000
     17 H           7.9829   22.3152   12.8137 H      201  AQO201      0.0000
     18 H          13.1909   25.2795    9.2073 H      201  AQO201      0.0000
     19 H          10.1417   25.2773   13.0572 H      201  AQO201      0.0000
@<TRIPOS>BOND
     1     1     2   ar
     2     1    12   ar
     3     1    13    1
     4     2     3   ar
     5     2    14    1
     6     3     4   ar
     7     3    15    1
     8     4     5   ar
     9     4    11   ar
    10     5     6   ar
    11     6     7    1
    12     6     8   ar
    13     7    16    1
    14     7    17    1
    15     8     9   ar
    16     8    19    1
    17     9    10    2
    18     9    11   ar
    19    11    12   ar
    20    12    18    1

