@<TRIPOS>MOLECULE
K36_1_A_401
 60 61 0 0 0
SMALL
NO_CHARGES

@<TRIPOS>ATOM
      1 C7        -14.1750    3.2620   -1.2180 C.3    401  K36401      0.0000
      2 O8        -15.0150    2.8970   -0.0960 O.3    401  K36401      0.0000
      3 C9        -14.8010    1.6800    0.4290 C.2    401  K36401      0.0000
      4 O10       -14.1690    1.4800    1.4430 O.2    401  K36401      0.0000
      5 C1        -12.7740    3.5890   -0.7840 C.ar   401  K36401      0.0000
      6 C2        -12.5240    4.6430    0.0800 C.ar   401  K36401      0.0000
      7 C3        -11.2240    4.9460    0.4610 C.ar   401  K36401      0.0000
      8 C4        -10.1660    4.2130   -0.0290 C.ar   401  K36401      0.0000
      9 C5        -10.4010    3.1660   -0.8880 C.ar   401  K36401      0.0000
     10 C6        -11.7000    2.8560   -1.2670 C.ar   401  K36401      0.0000
     11 N11       -15.3980    0.7260   -0.3070 N.am   401  K36401      0.0000
     12 C12       -15.4760   -0.6340    0.1950 C.3    401  K36401      0.0000
     13 C17       -14.1030   -1.2670    0.4130 C.2    401  K36401      0.0000
     14 O18       -13.3880   -1.5410   -0.5510 O.2    401  K36401      0.0000
     15 C13       -16.3050   -1.5010   -0.7480 C.3    401  K36401      0.0000
     16 C14       -17.7760   -1.1020   -0.8650 C.3    401  K36401      0.0000
     17 C15       -18.5240   -2.0930   -1.7280 C.3    401  K36401      0.0000
     18 C16       -18.4380   -0.9840    0.4980 C.3    401  K36401      0.0000
     19 N19       -13.7640   -1.5150    1.6830 N.am   401  K36401      0.0000
     20 C20       -12.4900   -2.0990    2.1120 C.3    401  K36401      0.0000
     21 C21       -12.6930   -3.5900    2.4230 C.3    401  K36401      0.0000
     22 O22       -11.4320   -4.2580    2.4980 O.3    401  K36401      0.0000
     23 C24       -11.9310   -1.2900    3.2880 C.3    401  K36401      0.0000
     24 C25       -11.5820    0.1380    2.8830 C.3    401  K36401      0.0000
     25 C26       -10.3990    0.3090    1.9380 C.3    401  K36401      0.0000
     26 C27        -9.8000    1.6560    2.3200 C.3    401  K36401      0.0000
     27 N28       -10.2290    1.8260    3.7050 N.am   401  K36401      0.0000
     28 C29       -11.2300    1.0270    4.0610 C.2    401  K36401      0.0000
     29 O30       -11.8010    1.0210    5.1690 O.2    401  K36401      0.0000
     30 H         -14.6083    4.1552   -1.7147 H      401  K36401      0.0000
     31 H         -14.1703    2.4639   -1.9884 H      401  K36401      0.0000
     32 H         -13.3603    5.2446    0.4754 H      401  K36401      0.0000
     33 H         -11.0389    5.7822    1.1569 H      401  K36401      0.0000
     34 H          -9.1337    4.4651    0.2691 H      401  K36401      0.0000
     35 H          -9.5575    2.5719   -1.2798 H      401  K36401      0.0000
     36 H         -11.8677    2.0126   -1.9587 H      401  K36401      0.0000
     37 H         -15.8268    0.9741   -1.2068 H      401  K36401      0.0000
     38 H         -15.9926   -0.6260    1.1825 H      401  K36401      0.0000
     39 H         -16.2515   -2.5564   -0.3902 H      401  K36401      0.0000
     40 H         -15.8395   -1.4959   -1.7613 H      401  K36401      0.0000
     41 H         -17.8379   -0.1045   -1.3649 H      401  K36401      0.0000
     42 H         -19.5842   -1.7902   -1.8814 H      401  K36401      0.0000
     43 H         -18.5369   -3.1119   -1.2802 H      401  K36401      0.0000
     44 H         -18.0690   -2.1853   -2.7398 H      401  K36401      0.0000
     45 H         -19.5348   -0.8195    0.4031 H      401  K36401      0.0000
     46 H         -18.0534   -0.1235    1.0880 H      401  K36401      0.0000
     47 H         -18.3020   -1.9028    1.1115 H      401  K36401      0.0000
     48 H         -14.4270   -1.2515    2.4251 H      401  K36401      0.0000
     49 H         -11.7510   -2.0356    1.2786 H      401  K36401      0.0000
     50 H         -13.3159   -4.0713    1.6375 H      401  K36401      0.0000
     51 H         -13.2325   -3.7168    3.3850 H      401  K36401      0.0000
     52 H         -11.1461   -4.4626    1.6173 H      401  K36401      0.0000
     53 H         -11.0213   -1.7905    3.6920 H      401  K36401      0.0000
     54 H         -12.6774   -1.2808    4.1153 H      401  K36401      0.0000
     55 H         -12.4713    0.6033    2.4119 H      401  K36401      0.0000
     56 H         -10.6969    0.2706    0.8662 H      401  K36401      0.0000
     57 H          -9.6500   -0.4971    2.1147 H      401  K36401      0.0000
     58 H         -10.2219    2.4608    1.6849 H      401  K36401      0.0000
     59 H          -8.6930    1.6612    2.2068 H      401  K36401      0.0000
     60 H          -9.8226    2.5072    4.3590 H      401  K36401      0.0000
@<TRIPOS>BOND
     1     1     2    1
     2     1     5    1
     3     1    30    1
     4     1    31    1
     5     2     3    1
     6     3     4    2
     7     3    11    1
     8     5     6   ar
     9     5    10   ar
    10     6     7   ar
    11     6    32    1
    12     7     8   ar
    13     7    33    1
    14     8     9   ar
    15     8    34    1
    16     9    10   ar
    17     9    35    1
    18    10    36    1
    19    11    12    1
    20    11    37    1
    21    12    13    1
    22    12    15    1
    23    12    38    1
    24    13    14    2
    25    13    19    1
    26    15    16    1
    27    15    39    1
    28    15    40    1
    29    16    17    1
    30    16    18    1
    31    16    41    1
    32    17    42    1
    33    17    43    1
    34    17    44    1
    35    18    45    1
    36    18    46    1
    37    18    47    1
    38    19    20    1
    39    19    48    1
    40    20    21    1
    41    20    23    1
    42    20    49    1
    43    21    22    1
    44    21    50    1
    45    21    51    1
    46    22    52    1
    47    23    24    1
    48    23    53    1
    49    23    54    1
    50    24    25    1
    51    24    28    1
    52    24    55    1
    53    25    26    1
    54    25    56    1
    55    25    57    1
    56    26    27    1
    57    26    58    1
    58    26    59    1
    59    27    28    1
    60    27    60    1
    61    28    29    2

