K36_1_A_401
  -ISIS-            3D

 60 61  0  0  0  0  0  0  0  0  1 V2000
  -14.1750    3.2620   -1.2180 C   0  0  0  0  0
  -15.0150    2.8970   -0.0960 O   0  0  0  0  0
  -14.8010    1.6800    0.4290 C   0  0  0  0  0
  -14.1690    1.4800    1.4430 O   0  0  0  0  0
  -12.7740    3.5890   -0.7840 C   0  0  0  0  0
  -12.5240    4.6430    0.0800 C   0  0  0  0  0
  -11.2240    4.9460    0.4610 C   0  0  0  0  0
  -10.1660    4.2130   -0.0290 C   0  0  0  0  0
  -10.4010    3.1660   -0.8880 C   0  0  0  0  0
  -11.7000    2.8560   -1.2670 C   0  0  0  0  0
  -15.3980    0.7260   -0.3070 N   0  0  0  0  0
  -15.4760   -0.6340    0.1950 C   0  0  0  0  0
  -14.1030   -1.2670    0.4130 C   0  0  0  0  0
  -13.3880   -1.5410   -0.5510 O   0  0  0  0  0
  -16.3050   -1.5010   -0.7480 C   0  0  0  0  0
  -17.7760   -1.1020   -0.8650 C   0  0  0  0  0
  -18.5240   -2.0930   -1.7280 C   0  0  0  0  0
  -18.4380   -0.9840    0.4980 C   0  0  0  0  0
  -13.7640   -1.5150    1.6830 N   0  0  0  0  0
  -12.4900   -2.0990    2.1120 C   0  0  0  0  0
  -12.6930   -3.5900    2.4230 C   0  0  0  0  0
  -11.4320   -4.2580    2.4980 O   0  0  0  0  0
  -11.9310   -1.2900    3.2880 C   0  0  0  0  0
  -11.5820    0.1380    2.8830 C   0  0  0  0  0
  -10.3990    0.3090    1.9380 C   0  0  0  0  0
   -9.8000    1.6560    2.3200 C   0  0  0  0  0
  -10.2290    1.8260    3.7050 N   0  0  0  0  0
  -11.2300    1.0270    4.0610 C   0  0  0  0  0
  -11.8010    1.0210    5.1690 O   0  0  0  0  0
  -14.6083    4.1552   -1.7147 H   0  0  0  0  0
  -14.1703    2.4639   -1.9884 H   0  0  0  0  0
  -13.3603    5.2446    0.4754 H   0  0  0  0  0
  -11.0389    5.7822    1.1569 H   0  0  0  0  0
   -9.1337    4.4651    0.2691 H   0  0  0  0  0
   -9.5575    2.5719   -1.2798 H   0  0  0  0  0
  -11.8677    2.0126   -1.9587 H   0  0  0  0  0
  -15.8268    0.9741   -1.2068 H   0  0  0  0  0
  -15.9926   -0.6260    1.1825 H   0  0  0  0  0
  -16.2515   -2.5564   -0.3902 H   0  0  0  0  0
  -15.8395   -1.4959   -1.7613 H   0  0  0  0  0
  -17.8379   -0.1045   -1.3649 H   0  0  0  0  0
  -19.5842   -1.7902   -1.8814 H   0  0  0  0  0
  -18.5369   -3.1119   -1.2802 H   0  0  0  0  0
  -18.0690   -2.1853   -2.7398 H   0  0  0  0  0
  -19.5348   -0.8195    0.4031 H   0  0  0  0  0
  -18.0534   -0.1235    1.0880 H   0  0  0  0  0
  -18.3020   -1.9028    1.1115 H   0  0  0  0  0
  -14.4270   -1.2515    2.4251 H   0  0  0  0  0
  -11.7510   -2.0356    1.2786 H   0  0  0  0  0
  -13.3159   -4.0713    1.6375 H   0  0  0  0  0
  -13.2325   -3.7168    3.3850 H   0  0  0  0  0
  -11.1461   -4.4626    1.6173 H   0  0  0  0  0
  -11.0213   -1.7905    3.6920 H   0  0  0  0  0
  -12.6774   -1.2808    4.1153 H   0  0  0  0  0
  -12.4713    0.6033    2.4119 H   0  0  0  0  0
  -10.6969    0.2706    0.8662 H   0  0  0  0  0
   -9.6500   -0.4971    2.1147 H   0  0  0  0  0
  -10.2219    2.4608    1.6849 H   0  0  0  0  0
   -8.6930    1.6612    2.2068 H   0  0  0  0  0
   -9.8226    2.5072    4.3590 H   0  0  0  0  0
  1  2  1  0  0  0
  1  5  1  0  0  0
  1 30  1  0  0  0
  1 31  1  0  0  0
  2  3  1  0  0  0
  3  4  2  0  0  0
  3 11  1  0  0  0
  5  6  2  0  0  0
  5 10  1  0  0  0
  6  7  1  0  0  0
  6 32  1  0  0  0
  7  8  2  0  0  0
  7 33  1  0  0  0
  8  9  1  0  0  0
  8 34  1  0  0  0
  9 10  2  0  0  0
  9 35  1  0  0  0
 10 36  1  0  0  0
 11 12  1  0  0  0
 11 37  1  0  0  0
 12 13  1  0  0  0
 12 15  1  0  0  0
 12 38  1  0  0  0
 13 14  2  0  0  0
 13 19  1  0  0  0
 15 16  1  0  0  0
 15 39  1  0  0  0
 15 40  1  0  0  0
 16 17  1  0  0  0
 16 18  1  0  0  0
 16 41  1  0  0  0
 17 42  1  0  0  0
 17 43  1  0  0  0
 17 44  1  0  0  0
 18 45  1  0  0  0
 18 46  1  0  0  0
 18 47  1  0  0  0
 19 20  1  0  0  0
 19 48  1  0  0  0
 20 21  1  0  0  0
 20 23  1  0  0  0
 20 49  1  0  0  0
 21 22  1  0  0  0
 21 50  1  0  0  0
 21 51  1  0  0  0
 22 52  1  0  0  0
 23 24  1  0  0  0
 23 53  1  0  0  0
 23 54  1  0  0  0
 24 25  1  0  0  0
 24 28  1  0  0  0
 24 55  1  0  0  0
 25 26  1  0  0  0
 25 56  1  0  0  0
 25 57  1  0  0  0
 26 27  1  0  0  0
 26 58  1  0  0  0
 26 59  1  0  0  0
 27 28  1  0  0  0
 27 60  1  0  0  0
 28 29  2  0  0  0
M  END
$$$$
