R30_1_A_401
  -ISIS-            3D

 51 54  0  0  0  0  0  0  0  0  1 V2000
   35.1220  -20.1950   36.0920 O   0  0  0  0  0
   36.0310  -19.6100   36.7490 C   0  0  0  0  0
   37.3290  -19.8310   36.4120 N   0  0  0  0  0
   38.4120  -19.2040   37.1170 C   0  0  0  0  0
   38.9650  -18.0060   36.6400 C   0  0  0  0  0
   40.0740  -17.3380   37.2400 C   0  0  0  0  0
   40.6850  -17.8120   38.3980 C   0  0  0  0  0
   41.8150  -17.1460   39.0360 N   0  0  0  0  0
   42.1520  -15.7920   38.9550 C   0  0  0  0  0
   43.3640  -15.0950   39.6100 C   0  0  0  0  0
   43.0920  -13.9230   40.5440 C   0  0  0  0  0
   41.4100  -15.0440   38.2910 O   0  0  0  0  0
   40.1350  -19.0090   38.8990 C   0  0  0  0  0
   39.0250  -19.6760   38.2890 C   0  0  0  0  0
   37.7100  -20.8150   35.3750 C   0  0  0  0  0
   38.7430  -21.8210   35.9020 C   0  0  0  0  0
   40.0680  -21.5890   35.8020 C   0  0  0  0  0
   41.0200  -22.7930   36.5390 S   0  0  0  0  0
   39.6420  -23.6560   37.0530 C   0  0  0  0  0
   38.5230  -23.0080   36.6500 C   0  0  0  0  0
   35.5800  -18.6610   37.9230 C   0  0  0  0  0
   34.2350  -18.2840   38.0440 N   0  0  0  0  0
   33.3480  -18.9770   38.8340 N   0  0  0  0  0
   32.1930  -18.4870   38.7590 N   0  0  0  0  0
   32.2460  -17.3510   37.8330 C   0  0  0  0  0
   33.5730  -17.2690   37.3990 C   0  0  0  0  0
   33.9850  -16.2630   36.4860 C   0  0  0  0  0
   33.0580  -15.3540   36.0150 C   0  0  0  0  0
   31.6950  -15.4450   36.4500 C   0  0  0  0  0
   31.2980  -16.4470   37.3570 C   0  0  0  0  0
   38.5277  -17.5578   35.7309 H   0  0  0  0  0
   40.4426  -16.4205   36.7568 H   0  0  0  0  0
   42.3774  -17.7925   39.6039 H   0  0  0  0  0
   44.0421  -14.7508   38.7944 H   0  0  0  0  0
   43.9403  -15.8647   40.1740 H   0  0  0  0  0
   44.0357  -13.5039   40.9601 H   0  0  0  0  0
   42.4562  -14.2307   41.4042 H   0  0  0  0  0
   42.5646  -13.0955   40.0190 H   0  0  0  0  0
   40.5699  -19.4563   39.8091 H   0  0  0  0  0
   38.6468  -20.6046   38.7488 H   0  0  0  0  0
   38.1378  -20.2926   34.4890 H   0  0  0  0  0
   36.8365  -21.3892   34.9945 H   0  0  0  0  0
   40.5183  -20.7155   35.3063 H   0  0  0  0  0
   39.6734  -24.5906   37.6311 H   0  0  0  0  0
   37.5091  -23.3680   36.8850 H   0  0  0  0  0
   35.0356  -16.2102   36.1578 H   0  0  0  0  0
   33.3584  -14.5638   35.3067 H   0  0  0  0  0
   30.9526  -14.7229   36.0703 H   0  0  0  0  0
   30.2500  -16.5173   37.6908 H   0  0  0  0  0
   36.2379  -17.8003   37.6834 H   0  0  0  0  0
   35.9195  -19.2600   38.7937 H   0  0  0  0  0
  1  2  2  0  0  0
  2  3  1  0  0  0
  2 21  1  0  0  0
  3  4  1  0  0  0
  3 15  1  0  0  0
  4  5  2  0  0  0
  4 14  1  0  0  0
  5  6  1  0  0  0
  5 31  1  0  0  0
  6  7  2  0  0  0
  6 32  1  0  0  0
  7  8  1  0  0  0
  7 13  1  0  0  0
  8  9  1  0  0  0
  8 33  1  0  0  0
  9 10  1  0  0  0
  9 12  2  0  0  0
 10 11  1  0  0  0
 10 34  1  0  0  0
 10 35  1  0  0  0
 11 36  1  0  0  0
 11 37  1  0  0  0
 11 38  1  0  0  0
 13 14  2  0  0  0
 13 39  1  0  0  0
 14 40  1  0  0  0
 15 16  1  0  0  0
 15 41  1  0  0  0
 15 42  1  0  0  0
 16 17  2  0  0  0
 16 20  1  0  0  0
 17 18  1  0  0  0
 17 43  1  0  0  0
 18 19  1  0  0  0
 19 20  1  0  0  0
 19 44  1  0  0  0
 20 45  1  0  0  0
 21 22  1  0  0  0
 21 50  1  0  0  0
 21 51  1  0  0  0
 22 23  1  0  0  0
 22 26  1  0  0  0
 23 24  2  0  0  0
 24 25  1  0  0  0
 25 26  2  0  0  0
 25 30  1  0  0  0
 26 27  1  0  0  0
 27 28  2  0  0  0
 27 46  1  0  0  0
 28 29  1  0  0  0
 28 47  1  0  0  0
 29 30  2  0  0  0
 29 48  1  0  0  0
 30 49  1  0  0  0
M  END
$$$$
