DMS_2_A_401
  -ISIS-            3D

 10  9  0  0  0  0  0  0  0  0  1 V2000
   -7.1450  -28.0810  -21.7040 S   0  0  0  0  0
   -7.7670  -26.9560  -22.4240 O   0  0  0  0  0
   -5.8200  -28.6650  -22.7280 C   0  0  0  0  0
   -6.1380  -27.3630  -20.4390 C   0  0  0  0  0
   -5.2214  -29.4191  -22.1772 H   0  0  0  0  0
   -5.1648  -27.8235  -23.0334 H   0  0  0  0  0
   -6.2422  -29.1401  -23.6371 H   0  0  0  0  0
   -5.5298  -28.1500  -19.9481 H   0  0  0  0  0
   -6.7898  -26.8896  -19.6765 H   0  0  0  0  0
   -5.4667  -26.5906  -20.8674 H   0  0  0  0  0
  1  2  2  0  0  0
  1  3  1  0  0  0
  1  4  1  0  0  0
  3  5  1  0  0  0
  3  6  1  0  0  0
  3  7  1  0  0  0
  4  8  1  0  0  0
  4  9  1  0  0  0
  4 10  1  0  0  0
M  END
$$$$
