@<TRIPOS>MOLECULE
DMS_1_A_401
 10 9 0 0 0
SMALL
NO_CHARGES

@<TRIPOS>ATOM
      1 S           7.1450  -28.0810   21.7040 S.o    401  DMS401      0.0000
      2 O           7.7670  -26.9560   22.4240 O.2    401  DMS401      0.0000
      3 C1          5.8200  -28.6650   22.7280 C.3    401  DMS401      0.0000
      4 C2          6.1380  -27.3630   20.4390 C.3    401  DMS401      0.0000
      5 H           5.2214  -29.4191   22.1772 H      401  DMS401      0.0000
      6 H           5.1648  -27.8235   23.0334 H      401  DMS401      0.0000
      7 H           6.2422  -29.1401   23.6371 H      401  DMS401      0.0000
      8 H           5.5298  -28.1500   19.9481 H      401  DMS401      0.0000
      9 H           6.7898  -26.8896   19.6765 H      401  DMS401      0.0000
     10 H           5.4667  -26.5906   20.8674 H      401  DMS401      0.0000
@<TRIPOS>BOND
     1     1     2    2
     2     1     3    1
     3     1     4    1
     4     3     5    1
     5     3     6    1
     6     3     7    1
     7     4     8    1
     8     4     9    1
     9     4    10    1

