@<TRIPOS>MOLECULE
DMS_1_A_403
 10 9 0 0 0
SMALL
NO_CHARGES

@<TRIPOS>ATOM
      1 S           2.3120  -18.9970    8.1470 S.o    403  DMS403      0.0000
      2 O           3.6380  -18.6820    8.8050 O.2    403  DMS403      0.0000
      3 C1          1.0600  -18.2050    9.1330 C.3    403  DMS403      0.0000
      4 C2          1.9550  -20.6700    8.6410 C.3    403  DMS403      0.0000
      5 H           0.0545  -18.5363    8.8019 H      403  DMS403      0.0000
      6 H           1.1349  -17.1058    9.0044 H      403  DMS403      0.0000
      7 H           1.1972  -18.4528   10.2056 H      403  DMS403      0.0000
      8 H           0.9255  -20.9424    8.3307 H      403  DMS403      0.0000
      9 H           2.0508  -20.7785    9.7409 H      403  DMS403      0.0000
     10 H           2.6710  -21.3581    8.1467 H      403  DMS403      0.0000
@<TRIPOS>BOND
     1     1     2    2
     2     1     3    1
     3     1     4    1
     4     3     5    1
     5     3     6    1
     6     3     7    1
     7     4     8    1
     8     4     9    1
     9     4    10    1

