@<TRIPOS>MOLECULE
DMS_1_A_402
 10 9 0 0 0
SMALL
NO_CHARGES

@<TRIPOS>ATOM
      1 S           6.0390   -1.0570   -6.4250 S.o    402  DMS402      0.0000
      2 O           6.9860   -0.8210   -7.5470 O.2    402  DMS402      0.0000
      3 C1          7.0010   -0.9230   -4.9270 C.3    402  DMS402      0.0000
      4 C2          5.7530   -2.7930   -6.3420 C.3    402  DMS402      0.0000
      5 H           6.3828   -1.2185   -4.0546 H      402  DMS402      0.0000
      6 H           7.3260    0.1295   -4.7948 H      402  DMS402      0.0000
      7 H           7.8980   -1.5732   -4.9834 H      402  DMS402      0.0000
      8 H           5.1657   -3.0368   -5.4332 H      402  DMS402      0.0000
      9 H           6.7146   -3.3454   -6.3195 H      402  DMS402      0.0000
     10 H           5.1765   -3.1127   -7.2343 H      402  DMS402      0.0000
@<TRIPOS>BOND
     1     1     2    2
     2     1     3    1
     3     1     4    1
     4     3     5    1
     5     3     6    1
     6     3     7    1
     7     4     8    1
     8     4     9    1
     9     4    10    1

