DMS_1_A_1002
  -ISIS-            3D

 10  9  0  0  0  0  0  0  0  0  1 V2000
    6.9030  -28.0990   21.4880 S   0  0  0  0  0
    7.6560  -27.1340   22.2810 O   0  0  0  0  0
    5.6170  -28.7180   22.5500 C   0  0  0  0  0
    5.9930  -27.1470   20.3290 C   0  0  0  0  0
    4.9289  -29.3629   21.9661 H   0  0  0  0  0
    5.0462  -27.8748   22.9903 H   0  0  0  0  0
    6.0686  -29.3178   23.3665 H   0  0  0  0  0
    5.2983  -27.8042   19.7670 H   0  0  0  0  0
    6.6906  -26.6665   19.6128 H   0  0  0  0  0
    5.4102  -26.3601   20.8504 H   0  0  0  0  0
  1  2  2  0  0  0
  1  3  1  0  0  0
  1  4  1  0  0  0
  3  5  1  0  0  0
  3  6  1  0  0  0
  3  7  1  0  0  0
  4  8  1  0  0  0
  4  9  1  0  0  0
  4 10  1  0  0  0
M  END
$$$$
