@<TRIPOS>MOLECULE
DMS_2_A_1002
 10 9 0 0 0
SMALL
NO_CHARGES

@<TRIPOS>ATOM
      1 S          -6.9030  -28.0990  -21.4880 S.o   1002  DMS1002      0.0000
      2 O          -7.6560  -27.1340  -22.2810 O.2   1002  DMS1002      0.0000
      3 C1         -5.6170  -28.7180  -22.5500 C.3   1002  DMS1002      0.0000
      4 C2         -5.9930  -27.1470  -20.3290 C.3   1002  DMS1002      0.0000
      5 H          -4.9289  -29.3629  -21.9661 H     1002  DMS1002      0.0000
      6 H          -5.0462  -27.8748  -22.9903 H     1002  DMS1002      0.0000
      7 H          -6.0686  -29.3178  -23.3665 H     1002  DMS1002      0.0000
      8 H          -5.2983  -27.8042  -19.7670 H     1002  DMS1002      0.0000
      9 H          -6.6906  -26.6665  -19.6128 H     1002  DMS1002      0.0000
     10 H          -5.4102  -26.3601  -20.8504 H     1002  DMS1002      0.0000
@<TRIPOS>BOND
     1     1     2    2
     2     1     3    1
     3     1     4    1
     4     3     5    1
     5     3     6    1
     6     3     7    1
     7     4     8    1
     8     4     9    1
     9     4    10    1

