@<TRIPOS>MOLECULE
K36_1_A_401
 60 61 0 0 0
SMALL
NO_CHARGES

@<TRIPOS>ATOM
      1 C7         -9.7230   31.8840    0.2090 C.3    401  K36401      0.0000
      2 O8         -9.2710   31.3440   -1.0080 O.3    401  K36401      0.0000
      3 C9         -8.8340   30.0250   -0.7500 C.2    401  K36401      0.0000
      4 O10        -9.4260   29.1630   -1.2910 O.2    401  K36401      0.0000
      5 C1        -11.2520   31.9570    0.2850 C.ar   401  K36401      0.0000
      6 C2        -11.9720   32.1810   -0.8740 C.ar   401  K36401      0.0000
      7 C3        -13.3620   32.2640   -0.7950 C.ar   401  K36401      0.0000
      8 C4        -14.0130   32.1320    0.4280 C.ar   401  K36401      0.0000
      9 C5        -13.2770   31.9050    1.5880 C.ar   401  K36401      0.0000
     10 C6        -11.8950   31.8190    1.5200 C.ar   401  K36401      0.0000
     11 N11        -7.7180   29.7290    0.1770 N.am   401  K36401      0.0000
     12 C12        -7.4560   28.3450    0.4990 C.3    401  K36401      0.0000
     13 C17        -8.7880   27.7750    1.0370 C.2    401  K36401      0.0000
     14 O18        -9.3810   28.4250    1.8370 O.2    401  K36401      0.0000
     15 C13        -6.4410   28.1030    1.5740 C.3    401  K36401      0.0000
     16 C14        -5.0750   27.8750    0.9270 C.3    401  K36401      0.0000
     17 C15        -4.7500   29.0210   -0.0060 C.3    401  K36401      0.0000
     18 C16        -4.0750   27.8860    2.0810 C.3    401  K36401      0.0000
     19 N19        -9.2840   26.4720    0.5480 N.am   401  K36401      0.0000
     20 C20       -10.5680   25.8590    0.9660 C.3    401  K36401      0.0000
     21 C21       -10.1720   24.4240    1.3860 C.3    401  K36401      0.0000
     22 O22       -11.0640   23.8900    2.3370 O.3    401  K36401      0.0000
     23 C24       -11.5930   25.8300   -0.1720 C.3    401  K36401      0.0000
     24 C25       -11.9750   27.2470   -0.8020 C.3    401  K36401      0.0000
     25 C26       -12.8440   27.9920    0.2350 C.3    401  K36401      0.0000
     26 C27       -13.9640   28.5970   -0.5050 C.3    401  K36401      0.0000
     27 N28       -14.0910   27.8540   -1.8160 N.am   401  K36401      0.0000
     28 C29       -12.8110   27.0620   -1.9800 C.2    401  K36401      0.0000
     29 O30       -12.5860   26.3720   -2.9140 O.2    401  K36401      0.0000
     30 H          -9.3333   32.9197    0.3035 H      401  K36401      0.0000
     31 H          -9.3431   31.3439    1.0998 H      401  K36401      0.0000
     32 H         -11.4688   32.2925   -1.8487 H      401  K36401      0.0000
     33 H         -13.9499   32.4391   -1.7124 H      401  K36401      0.0000
     34 H         -15.1129   32.2048    0.4780 H      401  K36401      0.0000
     35 H         -13.7920   31.7957    2.5576 H      401  K36401      0.0000
     36 H         -11.3127   31.6416    2.4400 H      401  K36401      0.0000
     37 H          -7.1750   30.4999    0.5849 H      401  K36401      0.0000
     38 H          -7.1987   27.7689   -0.4204 H      401  K36401      0.0000
     39 H          -6.7063   27.1931    2.1621 H      401  K36401      0.0000
     40 H          -6.4272   28.9548    2.2917 H      401  K36401      0.0000
     41 H          -5.0400   26.8997    0.3866 H      401  K36401      0.0000
     42 H          -3.7030   28.9456   -0.3769 H      401  K36401      0.0000
     43 H          -4.8371   30.0143    0.4880 H      401  K36401      0.0000
     44 H          -5.3865   29.0387   -0.9169 H      401  K36401      0.0000
     45 H          -3.0373   27.7083    1.7193 H      401  K36401      0.0000
     46 H          -4.2920   27.0850    2.8231 H      401  K36401      0.0000
     47 H          -4.0646   28.8530    2.6322 H      401  K36401      0.0000
     48 H          -8.7128   25.9769   -0.1512 H      401  K36401      0.0000
     49 H         -10.9906   26.4013    1.8419 H      401  K36401      0.0000
     50 H          -9.1515   24.4200    1.8297 H      401  K36401      0.0000
     51 H         -10.1284   23.7483    0.5062 H      401  K36401      0.0000
     52 H         -10.9049   24.3041    3.1752 H      401  K36401      0.0000
     53 H         -12.5175   25.3094    0.1693 H      401  K36401      0.0000
     54 H         -11.1767   25.2006   -0.9932 H      401  K36401      0.0000
     55 H         -11.0713   27.8230   -1.0711 H      401  K36401      0.0000
     56 H         -12.2512   28.7523    0.7919 H      401  K36401      0.0000
     57 H         -13.2467   27.2798    0.9909 H      401  K36401      0.0000
     58 H         -13.7544   29.6692   -0.7073 H      401  K36401      0.0000
     59 H         -14.9091   28.5556    0.0821 H      401  K36401      0.0000
     60 H         -14.8635   27.8654   -2.4926 H      401  K36401      0.0000
@<TRIPOS>BOND
     1     1     2    1
     2     1     5    1
     3     1    30    1
     4     1    31    1
     5     2     3    1
     6     3     4    2
     7     3    11    1
     8     5     6   ar
     9     5    10   ar
    10     6     7   ar
    11     6    32    1
    12     7     8   ar
    13     7    33    1
    14     8     9   ar
    15     8    34    1
    16     9    10   ar
    17     9    35    1
    18    10    36    1
    19    11    12    1
    20    11    37    1
    21    12    13    1
    22    12    15    1
    23    12    38    1
    24    13    14    2
    25    13    19    1
    26    15    16    1
    27    15    39    1
    28    15    40    1
    29    16    17    1
    30    16    18    1
    31    16    41    1
    32    17    42    1
    33    17    43    1
    34    17    44    1
    35    18    45    1
    36    18    46    1
    37    18    47    1
    38    19    20    1
    39    19    48    1
    40    20    21    1
    41    20    23    1
    42    20    49    1
    43    21    22    1
    44    21    50    1
    45    21    51    1
    46    22    52    1
    47    23    24    1
    48    23    53    1
    49    23    54    1
    50    24    25    1
    51    24    28    1
    52    24    55    1
    53    25    26    1
    54    25    56    1
    55    25    57    1
    56    26    27    1
    57    26    58    1
    58    26    59    1
    59    27    28    1
    60    27    60    1
    61    28    29    2

