@<TRIPOS>MOLECULE
DMS_1_A_401
 10 9 0 0 0
SMALL
NO_CHARGES

@<TRIPOS>ATOM
      1 S           7.0250  -28.0310   21.5370 S.o    401  DMS401      0.0000
      2 O           7.7890  -27.0870   22.3920 O.2    401  DMS401      0.0000
      3 C1          5.7560  -28.6950   22.5810 C.3    401  DMS401      0.0000
      4 C2          5.9680  -27.0430   20.5230 C.3    401  DMS401      0.0000
      5 H           5.0492  -29.3008   21.9778 H      401  DMS401      0.0000
      6 H           5.2028  -27.8786   23.0890 H      401  DMS401      0.0000
      7 H           6.2184  -29.3480   23.3493 H      401  DMS401      0.0000
      8 H           5.2588  -27.6926   19.9703 H      401  DMS401      0.0000
      9 H           6.5832  -26.4830   19.7892 H      401  DMS401      0.0000
     10 H           5.3999  -26.3185   21.1419 H      401  DMS401      0.0000
@<TRIPOS>BOND
     1     1     2    2
     2     1     3    1
     3     1     4    1
     4     3     5    1
     5     3     6    1
     6     3     7    1
     7     4     8    1
     8     4     9    1
     9     4    10    1

