DMS_2_A_401
  -ISIS-            3D

 10  9  0  0  0  0  0  0  0  0  1 V2000
   -7.0250  -28.0310  -21.5370 S   0  0  0  0  0
   -7.7890  -27.0870  -22.3920 O   0  0  0  0  0
   -5.7560  -28.6950  -22.5810 C   0  0  0  0  0
   -5.9680  -27.0430  -20.5230 C   0  0  0  0  0
   -5.0492  -29.3008  -21.9778 H   0  0  0  0  0
   -5.2028  -27.8786  -23.0890 H   0  0  0  0  0
   -6.2184  -29.3480  -23.3493 H   0  0  0  0  0
   -5.2588  -27.6926  -19.9703 H   0  0  0  0  0
   -6.5832  -26.4830  -19.7892 H   0  0  0  0  0
   -5.3999  -26.3185  -21.1419 H   0  0  0  0  0
  1  2  2  0  0  0
  1  3  1  0  0  0
  1  4  1  0  0  0
  3  5  1  0  0  0
  3  6  1  0  0  0
  3  7  1  0  0  0
  4  8  1  0  0  0
  4  9  1  0  0  0
  4 10  1  0  0  0
M  END
$$$$
