@<TRIPOS>MOLECULE
DMS_1_A_403
 10 9 0 0 0
SMALL
NO_CHARGES

@<TRIPOS>ATOM
      1 S           2.3910  -18.8620    8.1080 S.o    403  DMS403      0.0000
      2 O           3.6100  -18.8280    9.0190 O.2    403  DMS403      0.0000
      3 C1          1.0520  -18.2250    9.0980 C.3    403  DMS403      0.0000
      4 C2          1.8580  -20.5490    8.1480 C.3    403  DMS403      0.0000
      5 H           0.0872  -18.3810    8.5733 H      403  DMS403      0.0000
      6 H           1.2006  -17.1369    9.2546 H      403  DMS403      0.0000
      7 H           1.0232  -18.7295   10.0856 H      403  DMS403      0.0000
      8 H           0.8705  -20.6457    7.6522 H      403  DMS403      0.0000
      9 H           1.7836  -20.9113    9.1939 H      403  DMS403      0.0000
     10 H           2.5918  -21.1771    7.6026 H      403  DMS403      0.0000
@<TRIPOS>BOND
     1     1     2    2
     2     1     3    1
     3     1     4    1
     4     3     5    1
     5     3     6    1
     6     3     7    1
     7     4     8    1
     8     4     9    1
     9     4    10    1

