DMS_1_A_403
  -ISIS-            3D

 10  9  0  0  0  0  0  0  0  0  1 V2000
    2.3910  -18.8620    8.1080 S   0  0  0  0  0
    3.6100  -18.8280    9.0190 O   0  0  0  0  0
    1.0520  -18.2250    9.0980 C   0  0  0  0  0
    1.8580  -20.5490    8.1480 C   0  0  0  0  0
    0.0872  -18.3810    8.5733 H   0  0  0  0  0
    1.2006  -17.1369    9.2546 H   0  0  0  0  0
    1.0232  -18.7295   10.0856 H   0  0  0  0  0
    0.8705  -20.6457    7.6522 H   0  0  0  0  0
    1.7836  -20.9113    9.1939 H   0  0  0  0  0
    2.5918  -21.1771    7.6026 H   0  0  0  0  0
  1  2  2  0  0  0
  1  3  1  0  0  0
  1  4  1  0  0  0
  3  5  1  0  0  0
  3  6  1  0  0  0
  3  7  1  0  0  0
  4  8  1  0  0  0
  4  9  1  0  0  0
  4 10  1  0  0  0
M  END
$$$$
