@<TRIPOS>MOLECULE
DMS_2_A_402
 10 9 0 0 0
SMALL
NO_CHARGES

@<TRIPOS>ATOM
      1 S          -6.1630   -1.0010    6.2840 S.o    402  DMS402      0.0000
      2 O          -7.0990   -0.7830    7.4220 O.2    402  DMS402      0.0000
      3 C1         -7.1590   -1.0170    4.8110 C.3    402  DMS402      0.0000
      4 C2         -5.7330   -2.7140    6.2970 C.3    402  DMS402      0.0000
      5 H          -6.5376   -1.3079    3.9394 H      402  DMS402      0.0000
      6 H          -7.5687   -0.0013    4.6351 H      402  DMS402      0.0000
      7 H          -8.0006   -1.7315    4.9206 H      402  DMS402      0.0000
      8 H          -5.1456   -2.9627    5.3895 H      402  DMS402      0.0000
      9 H          -6.6461   -3.3431    6.3297 H      402  DMS402      0.0000
     10 H          -5.1148   -2.9303    7.1923 H      402  DMS402      0.0000
@<TRIPOS>BOND
     1     1     2    2
     2     1     3    1
     3     1     4    1
     4     3     5    1
     5     3     6    1
     6     3     7    1
     7     4     8    1
     8     4     9    1
     9     4    10    1

