@<TRIPOS>MOLECULE
EDO_1_A_401
 10 9 0 0 0
SMALL
NO_CHARGES

@<TRIPOS>ATOM
      1 C1        -20.4970   -4.9640    7.4170 C.3    401  EDO401      0.0000
      2 O1        -20.9130   -6.0010    8.3230 O.3    401  EDO401      0.0000
      3 C2        -19.4540   -4.0610    8.0730 C.3    401  EDO401      0.0000
      4 O2        -18.2980   -4.8260    8.4600 O.3    401  EDO401      0.0000
      5 H         -21.3866   -4.3719    7.1196 H      401  EDO401      0.0000
      6 H         -20.0891   -5.4256    6.4935 H      401  EDO401      0.0000
      7 H         -20.1252   -6.3147    8.7520 H      401  EDO401      0.0000
      8 H         -19.8813   -3.5804    8.9774 H      401  EDO401      0.0000
      9 H         -19.1553   -3.2425    7.3837 H      401  EDO401      0.0000
     10 H         -17.6867   -4.8326    7.7353 H      401  EDO401      0.0000
@<TRIPOS>BOND
     1     1     2    1
     2     1     3    1
     3     1     5    1
     4     1     6    1
     5     2     7    1
     6     3     4    1
     7     3     8    1
     8     3     9    1
     9     4    10    1

