@<TRIPOS>MOLECULE
EDO_1_B_402
 10 9 0 0 0
SMALL
NO_CHARGES

@<TRIPOS>ATOM
      1 C1         19.2000  -30.5790   18.4980 C.3    402  EDO402      0.0000
      2 O1         19.0030  -30.3940   17.0890 O.3    402  EDO402      0.0000
      3 C2         20.6850  -30.4740   18.8240 C.3    402  EDO402      0.0000
      4 O2         21.4020  -31.4770   18.0950 O.3    402  EDO402      0.0000
      5 H          18.7961  -31.5674   18.8018 H      402  EDO402      0.0000
      6 H          18.6248  -29.8050   19.0467 H      402  EDO402      0.0000
      7 H          19.6838  -30.8949   16.6541 H      402  EDO402      0.0000
      8 H          20.8603  -30.5932   19.9141 H      402  EDO402      0.0000
      9 H          21.0740  -29.4746   18.5382 H      402  EDO402      0.0000
     10 H          21.4444  -32.2626   18.6242 H      402  EDO402      0.0000
@<TRIPOS>BOND
     1     1     2    1
     2     1     3    1
     3     1     5    1
     4     1     6    1
     5     2     7    1
     6     3     4    1
     7     3     8    1
     8     3     9    1
     9     4    10    1

