5ZE_1_A_201
  -ISIS-            3D

 18 18  0  0  0  0  0  0  0  0  1 V2000
  -47.1650  -28.7950    5.9070 C   0  0  0  0  0
  -48.5990  -28.9220    5.3920 C   0  0  0  0  0
  -49.6720  -29.2240    6.2270 C   0  0  0  0  0
  -50.9330  -29.3220    5.6550 C   0  0  0  0  0
  -52.1730  -29.6640    6.4700 C   0  0  0  0  0
  -51.0760  -29.0970    4.3700 N   0  0  0  0  0
  -50.0480  -28.8030    3.6220 C   0  0  0  0  0
  -50.2180  -28.5670    2.2020 N   0  0  0  0  0
  -48.8480  -28.7140    4.1320 N   0  0  0  0  0
  -46.4558  -28.5494    5.0858 H   0  0  0  0  0
  -46.8247  -29.7460    6.3735 H   0  0  0  0  0
  -47.0871  -27.9910    6.6721 H   0  0  0  0  0
  -49.5222  -29.3902    7.3056 H   0  0  0  0  0
  -53.0862  -29.6957    5.8354 H   0  0  0  0  0
  -52.3449  -28.9092    7.2691 H   0  0  0  0  0
  -52.0674  -30.6588    6.9568 H   0  0  0  0  0
  -51.1805  -28.6482    1.8519 H   0  0  0  0  0
  -49.3596  -28.3416    1.6845 H   0  0  0  0  0
  1  2  1  0  0  0
  1 10  1  0  0  0
  1 11  1  0  0  0
  1 12  1  0  0  0
  2  3  2  0  0  0
  2  9  1  0  0  0
  3  4  1  0  0  0
  3 13  1  0  0  0
  4  5  1  0  0  0
  4  6  2  0  0  0
  5 14  1  0  0  0
  5 15  1  0  0  0
  5 16  1  0  0  0
  6  7  1  0  0  0
  7  8  1  0  0  0
  7  9  2  0  0  0
  8 17  1  0  0  0
  8 18  1  0  0  0
M  END
$$$$
