AZP_1_B_307
  -ISIS-            3D

 89 90  0  0  0  0  0  0  0  0  1 V2000
   72.2040   60.1020   78.5910 N   0  0  0  0  0
   73.1920   60.9610   78.8880 C   0  0  0  0  0
   74.0390   61.4200   77.7730 O   0  0  0  0  0
   74.8010   62.5640   78.2080 C   0  0  0  0  0
   74.1550   63.8820   77.7740 C   0  0  0  0  0
   74.6010   64.5330   76.6170 C   0  0  0  0  0
   74.0080   65.7300   76.2200 C   0  0  0  0  0
   72.9710   66.2680   76.9890 C   0  0  0  0  0
   72.5130   65.6360   78.1500 C   0  0  0  0  0
   73.1110   64.4430   78.5370 C   0  0  0  0  0
   73.3980   61.3140   80.0540 O   0  0  0  0  0
   70.9460   59.8940   79.3810 C   0  0  0  0  0
   69.8260   60.0810   78.3410 C   0  0  0  0  0
   68.4290   60.0140   78.9530 C   0  0  0  0  0
   67.9480   61.4340   79.2860 C   0  0  0  0  0
   67.5130   59.3160   77.9410 C   0  0  0  0  0
   70.8740   58.5240   80.0570 C   0  0  0  0  0
   70.9790   57.4680   79.4060 O   0  0  0  0  0
   70.6740   58.4400   81.3790 N   0  0  0  0  0
   70.5780   57.1500   82.0750 C   0  0  0  0  0
   70.1500   57.3230   83.5390 C   0  0  0  0  0
   71.2130   57.9970   84.4030 C   0  0  0  0  0
   72.5750   57.7020   84.2660 C   0  0  0  0  0
   73.4940   58.3550   85.1030 C   0  0  0  0  0
   73.1210   59.2790   86.0810 C   0  0  0  0  0
   71.7830   59.5640   86.2300 C   0  0  0  0  0
   70.8440   58.9310   85.3900 C   0  0  0  0  0
   69.5060   56.2920   81.4510 C   0  0  0  0  0
   68.5660   56.8420   80.8710 O   0  0  0  0  0
   69.5530   54.9430   81.5700 N   0  0  0  0  0
   68.6580   54.0680   80.8080 N   0  0  0  0  0
   68.9470   53.8530   79.3830 C   0  0  0  0  0
   67.8590   54.2930   78.4240 C   0  0  0  0  0
   68.3040   54.0100   77.0010 C   0  0  0  0  0
   67.4790   54.2410   75.9980 N   0  0  0  0  0
   69.4110   53.5780   76.7140 O   0  0  0  0  0
   67.6210   53.4530   81.4130 C   0  0  0  0  0
   66.8110   52.7900   80.7620 O   0  0  0  0  0
   67.4860   53.5020   82.9320 C   0  0  0  0  0
   66.6050   54.5920   83.5260 C   0  0  0  0  0
   66.7630   55.8050   82.7880 O   0  0  0  0  0
   67.0190   54.7680   84.9730 C   0  0  0  0  0
   66.8810   53.8340   85.7650 O   0  0  0  0  0
   67.5850   56.0470   85.4300 O   0  0  0  0  0
   67.8510   55.9840   86.8530 C   0  0  0  0  0
   68.4840   57.2860   87.3270 C   0  0  0  0  0
   72.2958   59.5819   77.7087 H   0  0  0  0  0
   75.8058   62.5002   77.7400 H   0  0  0  0  0
   75.0133   62.5918   79.2943 H   0  0  0  0  0
   75.4178   64.1047   76.0117 H   0  0  0  0  0
   74.3521   66.2477   75.3086 H   0  0  0  0  0
   72.5021   67.2157   76.6722 H   0  0  0  0  0
   71.6947   66.0752   78.7449 H   0  0  0  0  0
   72.7599   63.9333   79.4500 H   0  0  0  0  0
   70.8465   60.6909   80.1548 H   0  0  0  0  0
   69.9362   59.2850   77.5684 H   0  0  0  0  0
   69.9619   61.0468   77.8017 H   0  0  0  0  0
   68.4398   59.4082   79.8886 H   0  0  0  0  0
   66.9378   61.4184   79.7530 H   0  0  0  0  0
   67.8790   62.0772   78.3805 H   0  0  0  0  0
   68.6288   61.9418   80.0052 H   0  0  0  0  0
   66.4670   59.2588   78.3173 H   0  0  0  0  0
   67.8364   58.2700   77.7386 H   0  0  0  0  0
   67.4806   59.8526   76.9663 H   0  0  0  0  0
   70.5994   59.3042   81.9331 H   0  0  0  0  0
   71.5446   56.6014   82.0056 H   0  0  0  0  0
   69.9421   56.3256   83.9903 H   0  0  0  0  0
   69.1972   57.8984   83.5860 H   0  0  0  0  0
   72.9461   56.9742   83.5273 H   0  0  0  0  0
   74.5672   58.1236   84.9838 H   0  0  0  0  0
   73.8792   59.7654   86.7174 H   0  0  0  0  0
   71.4470   60.2857   86.9938 H   0  0  0  0  0
   69.7785   59.1892   85.5136 H   0  0  0  0  0
   70.2642   54.5353   82.1937 H   0  0  0  0  0
   69.1601   52.7713   79.2127 H   0  0  0  0  0
   69.8889   54.3863   79.1139 H   0  0  0  0  0
   67.6600   55.3819   78.5482 H   0  0  0  0  0
   66.9055   53.7559   78.6194 H   0  0  0  0  0
   68.5044   53.5669   83.3750 H   0  0  0  0  0
   67.0959   52.5151   83.2727 H   0  0  0  0  0
   65.5425   54.2677   83.4810 H   0  0  0  0  0
   66.1814   56.4693   83.1317 H   0  0  0  0  0
   68.5381   55.1456   87.0979 H   0  0  0  0  0
   66.9058   55.8244   87.4158 H   0  0  0  0  0
   68.5531   57.3221   88.4361 H   0  0  0  0  0
   67.8996   58.1739   87.0020 H   0  0  0  0  0
   69.5175   57.3884   86.9387 H   0  0  0  0  0
   67.8038   54.0462   75.0422 H   0  0  0  0  0
   66.5369   54.6078   76.1843 H   0  0  0  0  0
  1  2  1  0  0  0
  1 12  1  0  0  0
  1 47  1  0  0  0
  2  3  1  0  0  0
  2 11  2  0  0  0
  3  4  1  0  0  0
  4  5  1  0  0  0
  4 48  1  0  0  0
  4 49  1  0  0  0
  5  6  2  0  0  0
  5 10  1  0  0  0
  6  7  1  0  0  0
  6 50  1  0  0  0
  7  8  2  0  0  0
  7 51  1  0  0  0
  8  9  1  0  0  0
  8 52  1  0  0  0
  9 10  2  0  0  0
  9 53  1  0  0  0
 10 54  1  0  0  0
 12 13  1  0  0  0
 12 17  1  0  0  0
 12 55  1  0  0  0
 13 14  1  0  0  0
 13 56  1  0  0  0
 13 57  1  0  0  0
 14 15  1  0  0  0
 14 16  1  0  0  0
 14 58  1  0  0  0
 15 59  1  0  0  0
 15 60  1  0  0  0
 15 61  1  0  0  0
 16 62  1  0  0  0
 16 63  1  0  0  0
 16 64  1  0  0  0
 17 18  2  0  0  0
 17 19  1  0  0  0
 19 20  1  0  0  0
 19 65  1  0  0  0
 20 21  1  0  0  0
 20 28  1  0  0  0
 20 66  1  0  0  0
 21 22  1  0  0  0
 21 67  1  0  0  0
 21 68  1  0  0  0
 22 23  2  0  0  0
 22 27  1  0  0  0
 23 24  1  0  0  0
 23 69  1  0  0  0
 24 25  2  0  0  0
 24 70  1  0  0  0
 25 26  1  0  0  0
 25 71  1  0  0  0
 26 27  2  0  0  0
 26 72  1  0  0  0
 27 73  1  0  0  0
 28 29  2  0  0  0
 28 30  1  0  0  0
 30 31  1  0  0  0
 30 74  1  0  0  0
 31 32  1  0  0  0
 31 37  1  0  0  0
 32 33  1  0  0  0
 32 75  1  0  0  0
 32 76  1  0  0  0
 33 34  1  0  0  0
 33 77  1  0  0  0
 33 78  1  0  0  0
 34 35  1  0  0  0
 34 36  2  0  0  0
 35 88  1  0  0  0
 35 89  1  0  0  0
 37 38  2  0  0  0
 37 39  1  0  0  0
 39 40  1  0  0  0
 39 79  1  0  0  0
 39 80  1  0  0  0
 40 41  1  0  0  0
 40 42  1  0  0  0
 40 81  1  0  0  0
 41 82  1  0  0  0
 42 43  2  0  0  0
 42 44  1  0  0  0
 44 45  1  0  0  0
 45 46  1  0  0  0
 45 83  1  0  0  0
 45 84  1  0  0  0
 46 85  1  0  0  0
 46 86  1  0  0  0
 46 87  1  0  0  0
M  END
$$$$
