@<TRIPOS>MOLECULE
AZP_1_A_307
 89 90 0 0 0
SMALL
NO_CHARGES

@<TRIPOS>ATOM
      1 N          67.5670   20.8850   49.0400 N.am   307  AZP307      0.0000
      2 CAI        66.8610   20.5660   47.9450 C.2    307  AZP307      0.0000
      3 OAH        66.2460   21.6740   47.2480 O.3    307  AZP307      0.0000
      4 CAG        64.9580   21.1780   46.8260 C.3    307  AZP307      0.0000
      5 CAE        63.8760   22.2510   46.7550 C.ar   307  AZP307      0.0000
      6 CAD        62.8880   22.3270   47.7510 C.ar   307  AZP307      0.0000
      7 CAC        61.9090   23.3250   47.6550 C.ar   307  AZP307      0.0000
      8 CAB        61.9000   24.2350   46.5960 C.ar   307  AZP307      0.0000
      9 CAA        62.8770   24.1610   45.6030 C.ar   307  AZP307      0.0000
     10 CAF        63.8530   23.1560   45.6890 C.ar   307  AZP307      0.0000
     11 OAL        66.7040   19.4230   47.5140 O.2    307  AZP307      0.0000
     12 CA         68.3570   19.9180   49.8230 C.3    307  AZP307      0.0000
     13 CB         69.8090   20.3700   49.9570 C.3    307  AZP307      0.0000
     14 CG         70.5300   20.6040   48.6290 C.3    307  AZP307      0.0000
     15 CD1        71.8230   21.3710   48.9470 C.3    307  AZP307      0.0000
     16 CD2        70.8600   19.2570   48.0120 C.3    307  AZP307      0.0000
     17 C          67.8620   19.8130   51.2280 C.2    307  AZP307      0.0000
     18 O          67.5210   20.7910   51.9170 O.2    307  AZP307      0.0000
     19 NAS        67.8360   18.5850   51.7270 N.am   307  AZP307      0.0000
     20 CAT        67.4130   18.3340   53.0850 C.3    307  AZP307      0.0000
     21 CAV        67.3980   16.8290   53.3450 C.3    307  AZP307      0.0000
     22 CAW        66.2150   16.0610   52.7020 C.ar   307  AZP307      0.0000
     23 CBF        64.8720   16.2910   53.0590 C.ar   307  AZP307      0.0000
     24 CBG        63.8190   15.5340   52.5110 C.ar   307  AZP307      0.0000
     25 CBH        64.0540   14.5190   51.5690 C.ar   307  AZP307      0.0000
     26 CBI        65.3710   14.2770   51.2080 C.ar   307  AZP307      0.0000
     27 CBJ        66.4370   15.0450   51.7460 C.ar   307  AZP307      0.0000
     28 CAU        68.4380   19.0490   53.9120 C.2    307  AZP307      0.0000
     29 OAY        69.6220   19.1160   53.5210 O.2    307  AZP307      0.0000
     30 NAX        67.9790   19.6120   55.0350 N.am   307  AZP307      0.0000
     31 NAZ        68.7800   20.1880   56.1170 N.am   307  AZP307      0.0000
     32 CBA        68.9840   21.6210   56.1890 C.3    307  AZP307      0.0000
     33 CBB        70.1050   21.9410   55.2690 C.3    307  AZP307      0.0000
     34 CBC        70.1970   23.4410   55.3020 C.2    307  AZP307      0.0000
     35 NBE        71.4120   23.9980   55.0840 N.am   307  AZP307      0.0000
     36 OBD        69.1530   24.0810   55.5500 O.2    307  AZP307      0.0000
     37 CBK        69.2980   19.4190   57.0970 C.2    307  AZP307      0.0000
     38 OBL        70.0970   19.8850   57.8790 O.2    307  AZP307      0.0000
     39 CBM        68.8660   17.9800   57.2940 C.3    307  AZP307      0.0000
     40 CBO        70.0070   17.0050   57.0500 C.3    307  AZP307      0.0000
     41 OBN        70.5560   17.3440   55.7730 O.3    307  AZP307      0.0000
     42 CBP        69.4930   15.5740   57.1770 C.2    307  AZP307      0.0000
     43 OBQ        69.5870   15.0140   58.2560 O.2    307  AZP307      0.0000
     44 OBR        68.9160   14.8830   56.0090 O.3    307  AZP307      0.0000
     45 CBS        68.0940   13.7390   56.3280 C.3    307  AZP307      0.0000
     46 CBT        67.7890   13.0840   55.0010 C.3    307  AZP307      0.0000
     47 H          67.5541   21.8633   49.3560 H      307  AZP307      0.0000
     48 H          64.5713   20.3805   47.4959 H      307  AZP307      0.0000
     49 H          65.0502   20.7166   45.8192 H      307  AZP307      0.0000
     50 H          62.8770   21.6212   48.5985 H      307  AZP307      0.0000
     51 H          61.1299   23.3936   48.4338 H      307  AZP307      0.0000
     52 H          61.1202   25.0139   46.5445 H      307  AZP307      0.0000
     53 H          62.8802   24.8759   44.7630 H      307  AZP307      0.0000
     54 H          64.6222   23.0900   44.9002 H      307  AZP307      0.0000
     55 H          68.3294   18.9157   49.3376 H      307  AZP307      0.0000
     56 H          70.3785   19.6336   50.5709 H      307  AZP307      0.0000
     57 H          69.8221   21.3234   50.5366 H      307  AZP307      0.0000
     58 H          69.9037   21.2091   47.9328 H      307  AZP307      0.0000
     59 H          72.4258   21.5467   48.0279 H      307  AZP307      0.0000
     60 H          72.4732   20.8224   49.6649 H      307  AZP307      0.0000
     61 H          71.6132   22.3720   49.3864 H      307  AZP307      0.0000
     62 H          71.4444   19.3758   47.0721 H      307  AZP307      0.0000
     63 H          69.9459   18.6841   47.7415 H      307  AZP307      0.0000
     64 H          71.4651   18.6143   48.6897 H      307  AZP307      0.0000
     65 H          68.1213   17.7869   51.1430 H      307  AZP307      0.0000
     66 H          66.3960   18.7554   53.2605 H      307  AZP307      0.0000
     67 H          67.3270   16.6639   54.4448 H      307  AZP307      0.0000
     68 H          68.3663   16.3736   53.0368 H      307  AZP307      0.0000
     69 H          64.6321   17.0744   53.7982 H      307  AZP307      0.0000
     70 H          62.7823   15.7445   52.8261 H      307  AZP307      0.0000
     71 H          63.2238   13.9339   51.1400 H      307  AZP307      0.0000
     72 H          65.5958   13.4787   50.4797 H      307  AZP307      0.0000
     73 H          67.4668   14.8220   51.4177 H      307  AZP307      0.0000
     74 H          66.9548   19.6323   55.1429 H      307  AZP307      0.0000
     75 H          69.2079   21.9707   57.2231 H      307  AZP307      0.0000
     76 H          68.0408   22.1291   55.8821 H      307  AZP307      0.0000
     77 H          69.9021   21.6054   54.2277 H      307  AZP307      0.0000
     78 H          71.0504   21.4637   55.6134 H      307  AZP307      0.0000
     79 H          68.0089   17.7303   56.6324 H      307  AZP307      0.0000
     80 H          68.4889   17.8563   58.3345 H      307  AZP307      0.0000
     81 H          70.7843   17.1675   57.8295 H      307  AZP307      0.0000
     82 H          71.2955   16.7809   55.5902 H      307  AZP307      0.0000
     83 H          67.1556   14.0509   56.8327 H      307  AZP307      0.0000
     84 H          68.6259   13.0214   56.9872 H      307  AZP307      0.0000
     85 H          67.1662   12.1725   55.1329 H      307  AZP307      0.0000
     86 H          68.7150   12.7739   54.4694 H      307  AZP307      0.0000
     87 H          67.2289   13.7646   54.3245 H      307  AZP307      0.0000
     88 H          71.4877   25.0226   55.1208 H      307  AZP307      0.0000
     89 H          72.2263   23.4019   54.8874 H      307  AZP307      0.0000
@<TRIPOS>BOND
     1     1     2    1
     2     1    12    1
     3     1    47    1
     4     2     3    1
     5     2    11    2
     6     3     4    1
     7     4     5    1
     8     4    48    1
     9     4    49    1
    10     5     6   ar
    11     5    10   ar
    12     6     7   ar
    13     6    50    1
    14     7     8   ar
    15     7    51    1
    16     8     9   ar
    17     8    52    1
    18     9    10   ar
    19     9    53    1
    20    10    54    1
    21    12    13    1
    22    12    17    1
    23    12    55    1
    24    13    14    1
    25    13    56    1
    26    13    57    1
    27    14    15    1
    28    14    16    1
    29    14    58    1
    30    15    59    1
    31    15    60    1
    32    15    61    1
    33    16    62    1
    34    16    63    1
    35    16    64    1
    36    17    18    2
    37    17    19    1
    38    19    20    1
    39    19    65    1
    40    20    21    1
    41    20    28    1
    42    20    66    1
    43    21    22    1
    44    21    67    1
    45    21    68    1
    46    22    23   ar
    47    22    27   ar
    48    23    24   ar
    49    23    69    1
    50    24    25   ar
    51    24    70    1
    52    25    26   ar
    53    25    71    1
    54    26    27   ar
    55    26    72    1
    56    27    73    1
    57    28    29    2
    58    28    30    1
    59    30    31    1
    60    30    74    1
    61    31    32    1
    62    31    37    1
    63    32    33    1
    64    32    75    1
    65    32    76    1
    66    33    34    1
    67    33    77    1
    68    33    78    1
    69    34    35    1
    70    34    36    2
    71    35    88    1
    72    35    89    1
    73    37    38    2
    74    37    39    1
    75    39    40    1
    76    39    79    1
    77    39    80    1
    78    40    41    1
    79    40    42    1
    80    40    81    1
    81    41    82    1
    82    42    43    2
    83    42    44    1
    84    44    45    1
    85    45    46    1
    86    45    83    1
    87    45    84    1
    88    46    85    1
    89    46    86    1
    90    46    87    1

