BTB_1_A_402
  -ISIS-            3D

 29 28  0  0  0  0  0  0  0  0  1 V2000
   14.7230  -44.4760  -55.6220 C   0  0  0  0  0
   13.6140  -44.4240  -56.4850 O   0  0  0  0  0
   14.5820  -45.5380  -54.5250 C   0  0  0  0  0
   13.5380  -45.1230  -53.4790 C   0  0  0  0  0
   13.8080  -43.8350  -53.0070 O   0  0  0  0  0
   15.9340  -45.6940  -53.8380 C   0  0  0  0  0
   15.7100  -46.5680  -52.7630 O   0  0  0  0  0
   14.1610  -46.8600  -55.0180 N   0  0  0  0  0
   12.7140  -46.8670  -55.2000 C   0  0  0  0  0
   12.0740  -48.1840  -54.8380 C   0  0  0  0  0
   11.1300  -48.5090  -55.4730 O   0  0  0  0  0
   14.9460  -47.3570  -56.1470 C   0  0  0  0  0
   14.2220  -47.2430  -57.4810 C   0  0  0  0  0
   13.3930  -48.0140  -57.8060 O   0  0  0  0  0
   14.8894  -43.4755  -55.1698 H   0  0  0  0  0
   15.6260  -44.6733  -56.2365 H   0  0  0  0  0
   13.5878  -43.5718  -56.9017 H   0  0  0  0  0
   13.4562  -45.8408  -52.6343 H   0  0  0  0  0
   12.5232  -44.9338  -53.8590 H   0  0  0  0  0
   13.4694  -43.7470  -52.1263 H   0  0  0  0  0
   16.3004  -44.7193  -53.4523 H   0  0  0  0  0
   16.7228  -46.0998  -54.5010 H   0  0  0  0  0
   16.5252  -46.6895  -52.2938 H   0  0  0  0  0
   12.4396  -46.5754  -56.2324 H   0  0  0  0  0
   12.0807  -46.2076  -54.6125 H   0  0  0  0  0
   12.4599  -48.8062  -53.9949 H   0  0  0  0  0
   15.1369  -48.4390  -55.9669 H   0  0  0  0  0
   15.9507  -46.8963  -56.2144 H   0  0  0  0  0
   14.4886  -46.3939  -58.1578 H   0  0  0  0  0
  1  2  1  0  0  0
  1  3  1  0  0  0
  1 15  1  0  0  0
  1 16  1  0  0  0
  2 17  1  0  0  0
  3  4  1  0  0  0
  3  6  1  0  0  0
  3  8  1  0  0  0
  4  5  1  0  0  0
  4 18  1  0  0  0
  4 19  1  0  0  0
  5 20  1  0  0  0
  6  7  1  0  0  0
  6 21  1  0  0  0
  6 22  1  0  0  0
  7 23  1  0  0  0
  8  9  1  0  0  0
  8 12  1  0  0  0
  9 10  1  0  0  0
  9 24  1  0  0  0
  9 25  1  0  0  0
 10 11  2  0  0  0
 10 26  1  0  0  0
 12 13  1  0  0  0
 12 27  1  0  0  0
 12 28  1  0  0  0
 13 14  2  0  0  0
 13 29  1  0  0  0
M  END
$$$$
