@<TRIPOS>MOLECULE
DMS_1_A_402
 10 9 0 0 0
SMALL
NO_CHARGES

@<TRIPOS>ATOM
      1 S           7.2220  -28.0060   22.0720 S.o    402  DMS402      0.0000
      2 O           7.5870  -28.2570   20.6470 O.2    402  DMS402      0.0000
      3 C1          6.8680  -26.2370   22.2770 C.3    402  DMS402      0.0000
      4 C2          5.5800  -28.7190   22.3780 C.3    402  DMS402      0.0000
      5 H           6.5150  -26.0474   23.3113 H      402  DMS402      0.0000
      6 H           6.0874  -25.9235   21.5538 H      402  DMS402      0.0000
      7 H           7.7943  -25.6550   22.0941 H      402  DMS402      0.0000
      8 H           5.2558  -28.4726   23.4097 H      402  DMS402      0.0000
      9 H           5.6328  -29.8211   22.2645 H      402  DMS402      0.0000
     10 H           4.8503  -28.3085   21.6503 H      402  DMS402      0.0000
@<TRIPOS>BOND
     1     1     2    2
     2     1     3    1
     3     1     4    1
     4     3     5    1
     5     3     6    1
     6     3     7    1
     7     4     8    1
     8     4     9    1
     9     4    10    1

