DMS_2_A_403
  -ISIS-            3D

 10  9  0  0  0  0  0  0  0  0  1 V2000
   -2.3890  -18.8320   -8.0000 S   0  0  0  0  0
   -3.6730  -18.5770   -8.8050 O   0  0  0  0  0
   -1.0910  -18.0000   -8.8940 C   0  0  0  0  0
   -1.9170  -20.4770   -8.5150 C   0  0  0  0  0
   -0.1022  -18.3024   -8.4924 H   0  0  0  0  0
   -1.2070  -16.9041   -8.7675 H   0  0  0  0  0
   -1.1434  -18.2439   -9.9749 H   0  0  0  0  0
   -0.9015  -20.7136   -8.1367 H   0  0  0  0  0
   -1.9290  -20.5584   -9.6213 H   0  0  0  0  0
   -2.6340  -21.2105   -8.0926 H   0  0  0  0  0
  1  2  2  0  0  0
  1  3  1  0  0  0
  1  4  1  0  0  0
  3  5  1  0  0  0
  3  6  1  0  0  0
  3  7  1  0  0  0
  4  8  1  0  0  0
  4  9  1  0  0  0
  4 10  1  0  0  0
M  END
$$$$
