@<TRIPOS>MOLECULE
DMS_2_A_403
 10 9 0 0 0
SMALL
NO_CHARGES

@<TRIPOS>ATOM
      1 S          -2.3890  -18.8320   -8.0000 S.o    403  DMS403      0.0000
      2 O          -3.6730  -18.5770   -8.8050 O.2    403  DMS403      0.0000
      3 C1         -1.0910  -18.0000   -8.8940 C.3    403  DMS403      0.0000
      4 C2         -1.9170  -20.4770   -8.5150 C.3    403  DMS403      0.0000
      5 H          -0.1022  -18.3024   -8.4924 H      403  DMS403      0.0000
      6 H          -1.2070  -16.9041   -8.7675 H      403  DMS403      0.0000
      7 H          -1.1434  -18.2439   -9.9749 H      403  DMS403      0.0000
      8 H          -0.9015  -20.7136   -8.1367 H      403  DMS403      0.0000
      9 H          -1.9290  -20.5584   -9.6213 H      403  DMS403      0.0000
     10 H          -2.6340  -21.2105   -8.0926 H      403  DMS403      0.0000
@<TRIPOS>BOND
     1     1     2    2
     2     1     3    1
     3     1     4    1
     4     3     5    1
     5     3     6    1
     6     3     7    1
     7     4     8    1
     8     4     9    1
     9     4    10    1

