EDO_1_A_502
  -ISIS-            3D

 10  9  0  0  0  0  0  0  0  0  1 V2000
    8.9900   -3.6190   25.1000 C   0  0  0  0  0
    8.8150   -3.2220   23.7240 O   0  0  0  0  0
    7.6840   -4.1130   25.7240 C   0  0  0  0  0
    7.8870   -4.3970   27.1340 O   0  0  0  0  0
    9.3656   -2.7419   25.6672 H   0  0  0  0  0
    9.7739   -4.4029   25.1666 H   0  0  0  0  0
    8.8426   -4.0010   23.1844 H   0  0  0  0  0
    7.3318   -5.0313   25.2089 H   0  0  0  0  0
    6.8935   -3.3406   25.6151 H   0  0  0  0  0
    7.0487   -4.6308   27.5104 H   0  0  0  0  0
  1  2  1  0  0  0
  1  3  1  0  0  0
  1  5  1  0  0  0
  1  6  1  0  0  0
  2  7  1  0  0  0
  3  4  1  0  0  0
  3  8  1  0  0  0
  3  9  1  0  0  0
  4 10  1  0  0  0
M  END
$$$$
