@<TRIPOS>MOLECULE
EDO_1_A_502
 10 9 0 0 0
SMALL
NO_CHARGES

@<TRIPOS>ATOM
      1 C1          8.9900   -3.6190   25.1000 C.3    502  EDO502      0.0000
      2 O1          8.8150   -3.2220   23.7240 O.3    502  EDO502      0.0000
      3 C2          7.6840   -4.1130   25.7240 C.3    502  EDO502      0.0000
      4 O2          7.8870   -4.3970   27.1340 O.3    502  EDO502      0.0000
      5 H           9.3656   -2.7419   25.6672 H      502  EDO502      0.0000
      6 H           9.7739   -4.4029   25.1666 H      502  EDO502      0.0000
      7 H           8.8426   -4.0010   23.1844 H      502  EDO502      0.0000
      8 H           7.3318   -5.0313   25.2089 H      502  EDO502      0.0000
      9 H           6.8935   -3.3406   25.6151 H      502  EDO502      0.0000
     10 H           7.0487   -4.6308   27.5104 H      502  EDO502      0.0000
@<TRIPOS>BOND
     1     1     2    1
     2     1     3    1
     3     1     5    1
     4     1     6    1
     5     2     7    1
     6     3     4    1
     7     3     8    1
     8     3     9    1
     9     4    10    1

