DMS_2_A_401
  -ISIS-            3D

 10  9  0  0  0  0  0  0  0  0  1 V2000
   -7.0010  -28.2220  -21.3190 S   0  0  0  0  0
   -7.7380  -27.2570  -22.1540 O   0  0  0  0  0
   -5.7010  -28.8280  -22.3760 C   0  0  0  0  0
   -6.0190  -27.2590  -20.2150 C   0  0  0  0  0
   -4.9998  -29.4536  -21.7867 H   0  0  0  0  0
   -5.1469  -27.9817  -22.8314 H   0  0  0  0  0
   -6.1430  -29.4479  -23.1827 H   0  0  0  0  0
   -5.3159  -27.9174  -19.6650 H   0  0  0  0  0
   -6.6795  -26.7510  -19.4829 H   0  0  0  0  0
   -5.4441  -26.4929  -20.7747 H   0  0  0  0  0
  1  2  2  0  0  0
  1  3  1  0  0  0
  1  4  1  0  0  0
  3  5  1  0  0  0
  3  6  1  0  0  0
  3  7  1  0  0  0
  4  8  1  0  0  0
  4  9  1  0  0  0
  4 10  1  0  0  0
M  END
$$$$
