@<TRIPOS>MOLECULE
DMS_1_A_403
 10 9 0 0 0
SMALL
NO_CHARGES

@<TRIPOS>ATOM
      1 S           2.3190  -19.0050    8.0020 S.o    403  DMS403      0.0000
      2 O           3.5770  -18.6110    8.7800 O.2    403  DMS403      0.0000
      3 C1          0.9590  -18.2190    8.8490 C.3    403  DMS403      0.0000
      4 C2          1.9950  -20.6800    8.5190 C.3    403  DMS403      0.0000
      5 H          -0.0027  -18.5966    8.4454 H      403  DMS403      0.0000
      6 H           1.0113  -17.1231    8.6861 H      403  DMS403      0.0000
      7 H           1.0108  -18.4261    9.9376 H      403  DMS403      0.0000
      8 H           1.0100  -21.0089    8.1292 H      403  DMS403      0.0000
      9 H           1.9966  -20.7502    9.6261 H      403  DMS403      0.0000
     10 H           2.7823  -21.3474    8.1127 H      403  DMS403      0.0000
@<TRIPOS>BOND
     1     1     2    2
     2     1     3    1
     3     1     4    1
     4     3     5    1
     5     3     6    1
     6     3     7    1
     7     4     8    1
     8     4     9    1
     9     4    10    1

