@<TRIPOS>MOLECULE
DMS_2_A_401
 10 9 0 0 0
SMALL
NO_CHARGES

@<TRIPOS>ATOM
      1 S          -7.0010  -28.2220  -21.3190 S.o    401  DMS401      0.0000
      2 O          -7.7380  -27.2570  -22.1540 O.2    401  DMS401      0.0000
      3 C1         -5.7010  -28.8280  -22.3760 C.3    401  DMS401      0.0000
      4 C2         -6.0190  -27.2590  -20.2150 C.3    401  DMS401      0.0000
      5 H          -4.9998  -29.4536  -21.7867 H      401  DMS401      0.0000
      6 H          -5.1469  -27.9817  -22.8314 H      401  DMS401      0.0000
      7 H          -6.1430  -29.4479  -23.1827 H      401  DMS401      0.0000
      8 H          -5.3159  -27.9174  -19.6650 H      401  DMS401      0.0000
      9 H          -6.6795  -26.7510  -19.4829 H      401  DMS401      0.0000
     10 H          -5.4441  -26.4929  -20.7747 H      401  DMS401      0.0000
@<TRIPOS>BOND
     1     1     2    2
     2     1     3    1
     3     1     4    1
     4     3     5    1
     5     3     6    1
     6     3     7    1
     7     4     8    1
     8     4     9    1
     9     4    10    1

