@<TRIPOS>MOLECULE
DMS_1_A_402
 10 9 0 0 0
SMALL
NO_CHARGES

@<TRIPOS>ATOM
      1 S           6.1980   -1.0050   -6.3150 S.o    402  DMS402      0.0000
      2 O           7.2700   -0.9540   -7.3190 O.2    402  DMS402      0.0000
      3 C1          7.0540   -0.8010   -4.7610 C.3    402  DMS402      0.0000
      4 C2          5.7890   -2.7020   -6.1010 C.3    402  DMS402      0.0000
      5 H           6.3533   -0.9768   -3.9193 H      402  DMS402      0.0000
      6 H           7.4428    0.2356   -4.6908 H      402  DMS402      0.0000
      7 H           7.9041   -1.5105   -4.6891 H      402  DMS402      0.0000
      8 H           5.1130   -2.8216   -5.2298 H      402  DMS402      0.0000
      9 H           6.7049   -3.3080   -5.9428 H      402  DMS402      0.0000
     10 H           5.2679   -3.0713   -7.0079 H      402  DMS402      0.0000
@<TRIPOS>BOND
     1     1     2    2
     2     1     3    1
     3     1     4    1
     4     3     5    1
     5     3     6    1
     6     3     7    1
     7     4     8    1
     8     4     9    1
     9     4    10    1

