@<TRIPOS>MOLECULE
DMS_2_A_404
 10 9 0 0 0
SMALL
NO_CHARGES

@<TRIPOS>ATOM
      1 S         -21.2990   14.6110   -7.9200 S.o    404  DMS404      0.0000
      2 O         -22.7500   14.5220   -8.1260 O.2    404  DMS404      0.0000
      3 C1        -21.0400   13.7330   -6.4030 C.3    404  DMS404      0.0000
      4 C2        -20.6100   13.3720   -8.9620 C.3    404  DMS404      0.0000
      5 H         -19.9542   13.5813   -6.2343 H      404  DMS404      0.0000
      6 H         -21.5507   12.7492   -6.4260 H      404  DMS404      0.0000
      7 H         -21.4489   14.3291   -5.5613 H      404  DMS404      0.0000
      8 H         -19.5339   13.2366   -8.7299 H      404  DMS404      0.0000
      9 H         -20.7057   13.6896  -10.0207 H      404  DMS404      0.0000
     10 H         -21.1399   12.4065   -8.8299 H      404  DMS404      0.0000
@<TRIPOS>BOND
     1     1     2    2
     2     1     3    1
     3     1     4    1
     4     3     5    1
     5     3     6    1
     6     3     7    1
     7     4     8    1
     8     4     9    1
     9     4    10    1

