DMS_2_A_407
  -ISIS-            3D

 10  9  0  0  0  0  0  0  0  0  1 V2000
  -18.1750  -18.3670    0.7180 S   0  0  0  0  0
  -16.7360  -18.6220    0.8280 O   0  0  0  0  0
  -18.5330  -18.5290   -1.0110 C   0  0  0  0  0
  -18.9960  -19.8170    1.3170 C   0  0  0  0  0
  -19.6294  -18.4838   -1.1727 H   0  0  0  0  0
  -18.1430  -19.4927   -1.3983 H   0  0  0  0  0
  -18.0548  -17.6958   -1.5656 H   0  0  0  0  0
  -20.0844  -19.7417    1.1171 H   0  0  0  0  0
  -18.8379  -19.9033    2.4115 H   0  0  0  0  0
  -18.5917  -20.7230    0.8206 H   0  0  0  0  0
  1  2  2  0  0  0
  1  3  1  0  0  0
  1  4  1  0  0  0
  3  5  1  0  0  0
  3  6  1  0  0  0
  3  7  1  0  0  0
  4  8  1  0  0  0
  4  9  1  0  0  0
  4 10  1  0  0  0
M  END
$$$$
