@<TRIPOS>MOLECULE
DMS_2_A_407
 10 9 0 0 0
SMALL
NO_CHARGES

@<TRIPOS>ATOM
      1 S         -18.1750  -18.3670    0.7180 S.o    407  DMS407      0.0000
      2 O         -16.7360  -18.6220    0.8280 O.2    407  DMS407      0.0000
      3 C1        -18.5330  -18.5290   -1.0110 C.3    407  DMS407      0.0000
      4 C2        -18.9960  -19.8170    1.3170 C.3    407  DMS407      0.0000
      5 H         -19.6294  -18.4838   -1.1727 H      407  DMS407      0.0000
      6 H         -18.1430  -19.4927   -1.3983 H      407  DMS407      0.0000
      7 H         -18.0548  -17.6958   -1.5656 H      407  DMS407      0.0000
      8 H         -20.0844  -19.7417    1.1171 H      407  DMS407      0.0000
      9 H         -18.8379  -19.9033    2.4115 H      407  DMS407      0.0000
     10 H         -18.5917  -20.7230    0.8206 H      407  DMS407      0.0000
@<TRIPOS>BOND
     1     1     2    2
     2     1     3    1
     3     1     4    1
     4     3     5    1
     5     3     6    1
     6     3     7    1
     7     4     8    1
     8     4     9    1
     9     4    10    1

