DMS_2_A_406
  -ISIS-            3D

 10  9  0  0  0  0  0  0  0  0  1 V2000
   -2.5010  -18.7940   -7.9700 S   0  0  0  0  0
   -2.1910  -20.1390   -7.4680 O   0  0  0  0  0
   -3.8610  -19.0470   -9.0770 C   0  0  0  0  0
   -1.2100  -18.4160   -9.1260 C   0  0  0  0  0
   -4.0765  -18.1073   -9.6253 H   0  0  0  0  0
   -4.7603  -19.3381   -8.4965 H   0  0  0  0  0
   -3.6226  -19.8502   -9.8044 H   0  0  0  0  0
   -1.4566  -17.4810   -9.6692 H   0  0  0  0  0
   -1.0904  -19.2441   -9.8547 H   0  0  0  0  0
   -0.2557  -18.2729   -8.5790 H   0  0  0  0  0
  1  2  2  0  0  0
  1  3  1  0  0  0
  1  4  1  0  0  0
  3  5  1  0  0  0
  3  6  1  0  0  0
  3  7  1  0  0  0
  4  8  1  0  0  0
  4  9  1  0  0  0
  4 10  1  0  0  0
M  END
$$$$
