@<TRIPOS>MOLECULE
DMS_2_A_405
 10 9 0 0 0
SMALL
NO_CHARGES

@<TRIPOS>ATOM
      1 S          -5.6470    0.3750  -18.0900 S.o    405  DMS405      0.0000
      2 O          -6.8260    0.9900  -17.4670 O.2    405  DMS405      0.0000
      3 C1         -4.9560    1.6150  -19.1560 C.3    405  DMS405      0.0000
      4 C2         -6.3340   -0.6490  -19.3550 C.3    405  DMS405      0.0000
      5 H          -4.1707    1.1653  -19.7972 H      405  DMS405      0.0000
      6 H          -4.4980    2.4148  -18.5387 H      405  DMS405      0.0000
      7 H          -5.7448    2.0614  -19.7960 H      405  DMS405      0.0000
      8 H          -5.5241   -1.0437  -20.0019 H      405  DMS405      0.0000
      9 H          -7.0531   -0.0749  -19.9751 H      405  DMS405      0.0000
     10 H          -6.8645   -1.5043  -18.8883 H      405  DMS405      0.0000
@<TRIPOS>BOND
     1     1     2    2
     2     1     3    1
     3     1     4    1
     4     3     5    1
     5     3     6    1
     6     3     7    1
     7     4     8    1
     8     4     9    1
     9     4    10    1

