@<TRIPOS>MOLECULE
DMS_1_A_403
 10 9 0 0 0
SMALL
NO_CHARGES

@<TRIPOS>ATOM
      1 S           6.2270   -1.0420   -6.2930 S.o    403  DMS403      0.0000
      2 O           7.0440   -0.7530   -7.4690 O.2    403  DMS403      0.0000
      3 C1          7.3310   -0.9740   -4.9090 C.3    403  DMS403      0.0000
      4 C2          5.9100   -2.7860   -6.2960 C.3    403  DMS403      0.0000
      5 H           6.8050   -1.3092   -3.9916 H      403  DMS403      0.0000
      6 H           7.6736    0.0708   -4.7630 H      403  DMS403      0.0000
      7 H           8.2135   -1.6223   -5.0856 H      403  DMS403      0.0000
      8 H           5.4104   -3.0790   -5.3498 H      403  DMS403      0.0000
      9 H           6.8584   -3.3511   -6.4031 H      403  DMS403      0.0000
     10 H           5.2424   -3.0364   -7.1457 H      403  DMS403      0.0000
@<TRIPOS>BOND
     1     1     2    2
     2     1     3    1
     3     1     4    1
     4     3     5    1
     5     3     6    1
     6     3     7    1
     7     4     8    1
     8     4     9    1
     9     4    10    1

