DMS_2_A_405
  -ISIS-            3D

 10  9  0  0  0  0  0  0  0  0  1 V2000
   -5.6470    0.3750  -18.0900 S   0  0  0  0  0
   -6.8260    0.9900  -17.4670 O   0  0  0  0  0
   -4.9560    1.6150  -19.1560 C   0  0  0  0  0
   -6.3340   -0.6490  -19.3550 C   0  0  0  0  0
   -4.1707    1.1653  -19.7972 H   0  0  0  0  0
   -4.4980    2.4148  -18.5387 H   0  0  0  0  0
   -5.7448    2.0614  -19.7960 H   0  0  0  0  0
   -5.5241   -1.0437  -20.0019 H   0  0  0  0  0
   -7.0531   -0.0749  -19.9751 H   0  0  0  0  0
   -6.8645   -1.5043  -18.8883 H   0  0  0  0  0
  1  2  2  0  0  0
  1  3  1  0  0  0
  1  4  1  0  0  0
  3  5  1  0  0  0
  3  6  1  0  0  0
  3  7  1  0  0  0
  4  8  1  0  0  0
  4  9  1  0  0  0
  4 10  1  0  0  0
M  END
$$$$
