DMS_2_A_408
  -ISIS-            3D

 10  9  0  0  0  0  0  0  0  0  1 V2000
  -25.0460   -3.8610  -19.9340 S   0  0  0  0  0
  -24.1440   -2.8330  -19.3940 O   0  0  0  0  0
  -24.9280   -3.6620  -21.6720 C   0  0  0  0  0
  -24.1160   -5.3560  -19.8320 C   0  0  0  0  0
  -25.4320   -4.5064  -22.1851 H   0  0  0  0  0
  -23.8670   -3.6180  -21.9927 H   0  0  0  0  0
  -25.4303   -2.7183  -21.9686 H   0  0  0  0  0
  -24.6386   -6.1648  -20.3826 H   0  0  0  0  0
  -24.0205   -5.6563  -18.7683 H   0  0  0  0  0
  -23.1009   -5.2172  -20.2573 H   0  0  0  0  0
  1  2  2  0  0  0
  1  3  1  0  0  0
  1  4  1  0  0  0
  3  5  1  0  0  0
  3  6  1  0  0  0
  3  7  1  0  0  0
  4  8  1  0  0  0
  4  9  1  0  0  0
  4 10  1  0  0  0
M  END
$$$$
