@<TRIPOS>MOLECULE
HSM_1_A_201
 18 18 0 0 0
SMALL
NO_CHARGES

@<TRIPOS>ATOM
      1 N         -50.9140  -30.3050    8.2050 N.3    201  HSM201      1.0000
      2 CA        -50.0910  -30.4180    7.0140 C.3    201  HSM201      0.0000
      3 CB        -49.2690  -29.1540    6.7820 C.3    201  HSM201      0.0000
      4 CG        -48.4200  -29.2510    5.4910 C.ar   201  HSM201      0.0000
      5 ND1       -48.8350  -29.0790    4.2520 N.ar   201  HSM201      0.0000
      6 CD2       -47.0910  -29.5720    5.4170 C.ar   201  HSM201      0.0000
      7 CE1       -47.8130  -29.2860    3.4300 C.ar   201  HSM201      0.0000
      8 NE2       -46.7460  -29.5710    4.1520 N.ar   201  HSM201      0.0000
      9 H         -51.4580  -31.1530    8.3397 H      201  HSM201      0.0000
     10 H         -51.5604  -29.5248    8.1246 H      201  HSM201      0.0000
     11 H         -50.7401  -30.6065    6.1276 H      201  HSM201      0.0000
     12 H         -49.4136  -31.2983    7.1041 H      201  HSM201      0.0000
     13 H         -48.5930  -28.9712    7.6478 H      201  HSM201      0.0000
     14 H         -49.9367  -28.2666    6.6995 H      201  HSM201      0.0000
     15 H         -46.3525  -29.8052    6.1932 H      201  HSM201      0.0000
     16 H         -47.7704  -29.2348    2.3353 H      201  HSM201      0.0000
     17 H         -45.5423  -29.8227    3.6805 H      201  HSM201      0.0000
     18 H         -50.3397  -30.1642    9.0317 H      201  HSM201      0.0000
@<TRIPOS>BOND
     1     1     2    1
     2     1     9    1
     3     1    10    1
     4     2     3    1
     5     2    11    1
     6     2    12    1
     7     3     4    1
     8     3    13    1
     9     3    14    1
    10     4     5   ar
    11     4     6   ar
    12     5     7   ar
    13     6     8   ar
    14     6    15    1
    15     7     8   ar
    16     7    16    1
    17     8    17    1
    18     1    18    1

