@<TRIPOS>MOLECULE
DMS_2_A_401
 10 9 0 0 0
SMALL
NO_CHARGES

@<TRIPOS>ATOM
      1 S          -7.1620  -28.2040  -21.3510 S.o    401  DMS401      0.0000
      2 O          -7.6970  -27.2030  -22.2420 O.2    401  DMS401      0.0000
      3 C1         -5.9310  -28.9920  -22.3690 C.3    401  DMS401      0.0000
      4 C2         -6.0810  -27.3870  -20.2320 C.3    401  DMS401      0.0000
      5 H          -5.3364  -29.7007  -21.7568 H      401  DMS401      0.0000
      6 H          -5.2542  -28.2359  -22.8176 H      401  DMS401      0.0000
      7 H          -6.4325  -29.5567  -23.1816 H      401  DMS401      0.0000
      8 H          -5.5017  -28.1352  -19.6533 H      401  DMS401      0.0000
      9 H          -6.6778  -26.7745  -19.5255 H      401  DMS401      0.0000
     10 H          -5.3809  -26.7236  -20.7801 H      401  DMS401      0.0000
@<TRIPOS>BOND
     1     1     2    2
     2     1     3    1
     3     1     4    1
     4     3     5    1
     5     3     6    1
     6     3     7    1
     7     4     8    1
     8     4     9    1
     9     4    10    1

