DMS_2_A_401
  -ISIS-            3D

 10  9  0  0  0  0  0  0  0  0  1 V2000
   -7.1620  -28.2040  -21.3510 S   0  0  0  0  0
   -7.6970  -27.2030  -22.2420 O   0  0  0  0  0
   -5.9310  -28.9920  -22.3690 C   0  0  0  0  0
   -6.0810  -27.3870  -20.2320 C   0  0  0  0  0
   -5.3364  -29.7007  -21.7568 H   0  0  0  0  0
   -5.2542  -28.2359  -22.8176 H   0  0  0  0  0
   -6.4325  -29.5567  -23.1816 H   0  0  0  0  0
   -5.5017  -28.1352  -19.6533 H   0  0  0  0  0
   -6.6778  -26.7745  -19.5255 H   0  0  0  0  0
   -5.3809  -26.7236  -20.7801 H   0  0  0  0  0
  1  2  2  0  0  0
  1  3  1  0  0  0
  1  4  1  0  0  0
  3  5  1  0  0  0
  3  6  1  0  0  0
  3  7  1  0  0  0
  4  8  1  0  0  0
  4  9  1  0  0  0
  4 10  1  0  0  0
M  END
$$$$
