@<TRIPOS>MOLECULE
DMS_1_A_404
 10 9 0 0 0
SMALL
NO_CHARGES

@<TRIPOS>ATOM
      1 S          20.6480   14.2670    7.5720 S.o    404  DMS404      0.0000
      2 O          21.6510   15.3280    7.7310 O.2    404  DMS404      0.0000
      3 C1         20.9150   13.2030    8.9520 C.3    404  DMS404      0.0000
      4 C2         21.3190   13.2100    6.3260 C.3    404  DMS404      0.0000
      5 H          20.3220   12.2734    8.8318 H      404  DMS404      0.0000
      6 H          20.5884   13.7152    9.8802 H      404  DMS404      0.0000
      7 H          21.9900   12.9440    9.0439 H      404  DMS404      0.0000
      8 H          20.7177   12.2806    6.2563 H      404  DMS404      0.0000
      9 H          22.3721   12.9502    6.5597 H      404  DMS404      0.0000
     10 H          21.2858   13.7294    5.3464 H      404  DMS404      0.0000
@<TRIPOS>BOND
     1     1     2    2
     2     1     3    1
     3     1     4    1
     4     3     5    1
     5     3     6    1
     6     3     7    1
     7     4     8    1
     8     4     9    1
     9     4    10    1

