@<TRIPOS>MOLECULE
DMS_1_B_812
 10 9 0 0 0
SMALL
NO_CHARGES

@<TRIPOS>ATOM
      1 S          48.1080  -39.5670  -17.7680 S.o    812  DMS812      0.0000
      2 O          48.1110  -39.4870  -16.3050 O.2    812  DMS812      0.0000
      3 C1         49.0250  -40.8200  -18.5820 C.3    812  DMS812      0.0000
      4 C2         47.1900  -38.4030  -18.7140 C.3    812  DMS812      0.0000
      5 H          48.9022  -40.7230  -19.6797 H      812  DMS812      0.0000
      6 H          48.6597  -41.8165  -18.2601 H      812  DMS812      0.0000
      7 H          50.0992  -40.7212  -18.3244 H      812  DMS812      0.0000
      8 H          47.3068  -38.6217  -19.7948 H      812  DMS812      0.0000
      9 H          47.5622  -37.3793  -18.5056 H      812  DMS812      0.0000
     10 H          46.1168  -38.4672  -18.4417 H      812  DMS812      0.0000
@<TRIPOS>BOND
     1     1     2    2
     2     1     3    1
     3     1     4    1
     4     3     5    1
     5     3     6    1
     6     3     7    1
     7     4     8    1
     8     4     9    1
     9     4    10    1

