@<TRIPOS>MOLECULE
DMS_1_A_803
 10 9 0 0 0
SMALL
NO_CHARGES

@<TRIPOS>ATOM
      1 S          36.1850  -32.6860   -7.3870 S.o    803  DMS803      0.0000
      2 O          35.4030  -33.7420   -8.0290 O.2    803  DMS803      0.0000
      3 C1         37.7600  -33.0640   -6.7120 C.3    803  DMS803      0.0000
      4 C2         35.5430  -31.0550   -7.2720 C.3    803  DMS803      0.0000
      5 H          38.5335  -32.4375   -7.2010 H      803  DMS803      0.0000
      6 H          37.9941  -34.1346   -6.8823 H      803  DMS803      0.0000
      7 H          37.7556  -32.8588   -5.6221 H      803  DMS803      0.0000
      8 H          36.2324  -30.3483   -7.7772 H      803  DMS803      0.0000
      9 H          35.4416  -30.7707   -6.2049 H      803  DMS803      0.0000
     10 H          34.5481  -31.0086   -7.7599 H      803  DMS803      0.0000
@<TRIPOS>BOND
     1     1     2    2
     2     1     3    1
     3     1     4    1
     4     3     5    1
     5     3     6    1
     6     3     7    1
     7     4     8    1
     8     4     9    1
     9     4    10    1

