@<TRIPOS>MOLECULE
DMS_1_A_813
 10 9 0 0 0
SMALL
NO_CHARGES

@<TRIPOS>ATOM
      1 S          35.1340  -46.6980  -27.5020 S.o    813  DMS813      0.0000
      2 O          34.6700  -48.0220  -27.9250 O.2    813  DMS813      0.0000
      3 C1         34.4130  -45.9220  -26.0990 C.3    813  DMS813      0.0000
      4 C2         36.3980  -45.8760  -28.4090 C.3    813  DMS813      0.0000
      5 H          34.8898  -44.9354  -25.9290 H      813  DMS813      0.0000
      6 H          34.5628  -46.5597  -25.2041 H      813  DMS813      0.0000
      7 H          33.3268  -45.7786  -26.2713 H      813  DMS813      0.0000
      8 H          36.6187  -44.8953  -27.9409 H      813  DMS813      0.0000
      9 H          36.0609  -45.7156  -29.4533 H      813  DMS813      0.0000
     10 H          37.3173  -46.4963  -28.4099 H      813  DMS813      0.0000
@<TRIPOS>BOND
     1     1     2    2
     2     1     3    1
     3     1     4    1
     4     3     5    1
     5     3     6    1
     6     3     7    1
     7     4     8    1
     8     4     9    1
     9     4    10    1

