DOZ_1_B_902
  -ISIS-            3D

 12 11  0  0  0  0  0  0  0  0  1 V2000
   51.0150  -53.9520  -41.2170 Zn  0  2  0  0  0
   50.7740  -55.8860  -40.9540 N   0  0  0  0  0
   49.9700  -53.4000  -42.7310 O   0  0  0  0  0
   51.5840  -56.3510  -39.7880 C   0  0  0  0  0
   51.1980  -56.5830  -42.1820 C   0  0  0  0  0
   49.3308  -52.8084  -42.3575 H   0  0  0  0  0
   51.4455  -57.4414  -39.6242 H   0  0  0  0  0
   51.2563  -55.8193  -38.8691 H   0  0  0  0  0
   52.6639  -56.1416  -39.9471 H   0  0  0  0  0
   51.0738  -57.6820  -42.0734 H   0  0  0  0  0
   52.2612  -56.3611  -42.4183 H   0  0  0  0  0
   50.5736  -56.2516  -43.0389 H   0  0  0  0  0
  1  2  1  0  0  0
  1  3  1  0  0  0
  2  4  1  0  0  0
  2  5  1  0  0  0
  3  6  1  0  0  0
  4  7  1  0  0  0
  4  8  1  0  0  0
  4  9  1  0  0  0
  5 10  1  0  0  0
  5 11  1  0  0  0
  5 12  1  0  0  0
M  END
$$$$
