DMS_1_A_202
  -ISIS-            3D

 10  9  0  0  0  0  0  0  0  0  1 V2000
  -44.5220  -35.6480   -1.9850 S   0  0  0  0  0
  -44.4540  -34.0920   -2.0660 O   0  0  0  0  0
  -43.7330  -36.3200   -3.4250 C   0  0  0  0  0
  -46.1740  -36.1180   -2.4230 C   0  0  0  0  0
  -43.8786  -37.4190   -3.4584 H   0  0  0  0  0
  -42.6459  -36.1049   -3.3791 H   0  0  0  0  0
  -44.1515  -35.8619   -4.3445 H   0  0  0  0  0
  -46.2476  -37.2225   -2.4932 H   0  0  0  0  0
  -46.4608  -35.6649   -3.3940 H   0  0  0  0  0
  -46.8746  -35.7628   -1.6398 H   0  0  0  0  0
  1  2  2  0  0  0
  1  3  1  0  0  0
  1  4  1  0  0  0
  3  5  1  0  0  0
  3  6  1  0  0  0
  3  7  1  0  0  0
  4  8  1  0  0  0
  4  9  1  0  0  0
  4 10  1  0  0  0
M  END
$$$$
