@<TRIPOS>MOLECULE
DMS_1_A_202
 10 9 0 0 0
SMALL
NO_CHARGES

@<TRIPOS>ATOM
      1 S         -44.5220  -35.6480   -1.9850 S.o    202  DMS202      0.0000
      2 O         -44.4540  -34.0920   -2.0660 O.2    202  DMS202      0.0000
      3 C1        -43.7330  -36.3200   -3.4250 C.3    202  DMS202      0.0000
      4 C2        -46.1740  -36.1180   -2.4230 C.3    202  DMS202      0.0000
      5 H         -43.8786  -37.4190   -3.4584 H      202  DMS202      0.0000
      6 H         -42.6459  -36.1049   -3.3791 H      202  DMS202      0.0000
      7 H         -44.1515  -35.8619   -4.3445 H      202  DMS202      0.0000
      8 H         -46.2476  -37.2225   -2.4932 H      202  DMS202      0.0000
      9 H         -46.4608  -35.6649   -3.3940 H      202  DMS202      0.0000
     10 H         -46.8746  -35.7628   -1.6398 H      202  DMS202      0.0000
@<TRIPOS>BOND
     1     1     2    2
     2     1     3    1
     3     1     4    1
     4     3     5    1
     5     3     6    1
     6     3     7    1
     7     4     8    1
     8     4     9    1
     9     4    10    1

