@<TRIPOS>MOLECULE
SAM_1_A_7102
 50 52 0 0 0
SMALL
NO_CHARGES

@<TRIPOS>ATOM
      1 N         -60.7490   65.5740    1.8930 N.3   7102  SAM7102      1.0000
      2 CA        -60.8020   67.0010    1.4630 C.3   7102  SAM7102      0.0000
      3 C         -62.0570   67.6600    2.0510 C.2   7102  SAM7102      0.0000
      4 O         -62.6280   68.5930    1.4790 O.co2 7102  SAM7102     -0.5000
      5 OXT       -62.5170   67.2680    3.1280 O.co2 7102  SAM7102     -0.5000
      6 CB        -60.8150   67.1160   -0.0660 C.3   7102  SAM7102      0.0000
      7 CG        -59.5560   66.5800   -0.7170 C.3   7102  SAM7102      0.0000
      8 SD        -59.5220   66.9440   -2.4870 S.3   7102  SAM7102      0.0000
      9 CE        -60.7620   65.8200   -3.1110 C.3   7102  SAM7102      0.0000
     10 C5'       -57.9960   66.0760   -2.9290 C.3   7102  SAM7102      0.0000
     11 C4'       -56.7600   66.6940   -2.3060 C.3   7102  SAM7102      0.0000
     12 O4'       -55.6200   65.8500   -2.5740 O.3   7102  SAM7102      0.0000
     13 C3'       -56.3790   68.0870   -2.8260 C.3   7102  SAM7102      0.0000
     14 O3'       -56.5080   69.0510   -1.7870 O.3   7102  SAM7102      0.0000
     15 C2'       -54.9230   67.9340   -3.2970 C.3   7102  SAM7102      0.0000
     16 O2'       -54.1010   69.0310   -2.9630 O.3   7102  SAM7102      0.0000
     17 C1'       -54.4870   66.6790   -2.5530 C.3   7102  SAM7102      0.0000
     18 N9        -53.3680   65.9760   -3.1640 N.ar  7102  SAM7102      0.0000
     19 C8        -53.2900   65.5090   -4.4520 C.ar  7102  SAM7102      0.0000
     20 N7        -52.1530   64.9190   -4.7230 N.ar  7102  SAM7102      0.0000
     21 C5        -51.4330   64.9970   -3.5390 C.ar  7102  SAM7102      0.0000
     22 C6        -50.1440   64.5490   -3.1800 C.ar  7102  SAM7102      0.0000
     23 N6        -49.3200   63.9150   -4.0110 N.pl3 7102  SAM7102      0.0000
     24 N1        -49.7330   64.7880   -1.9120 N.ar  7102  SAM7102      0.0000
     25 C2        -50.5650   65.4320   -1.0820 C.ar  7102  SAM7102      0.0000
     26 N3        -51.7900   65.8980   -1.3080 N.ar  7102  SAM7102      0.0000
     27 C4        -52.1740   65.6470   -2.5690 C.ar  7102  SAM7102      0.0000
     28 H         -61.5414   65.0545    1.5257 H     7102  SAM7102      0.0000
     29 H         -60.7583   65.5009    2.9063 H     7102  SAM7102      0.0000
     30 H         -59.9128   67.5387    1.8702 H     7102  SAM7102      0.0000
     31 H         -60.9255   68.1903   -0.3435 H     7102  SAM7102      0.0000
     32 H         -61.7099   66.5895   -0.4694 H     7102  SAM7102      0.0000
     33 H         -59.4594   65.4827   -0.5663 H     7102  SAM7102      0.0000
     34 H         -58.6759   67.0609   -0.2375 H     7102  SAM7102      0.0000
     35 H         -60.7165   65.7790   -4.2209 H     7102  SAM7102      0.0000
     36 H         -61.7820   66.1612   -2.8327 H     7102  SAM7102      0.0000
     37 H         -60.6301   64.7857   -2.7271 H     7102  SAM7102      0.0000
     38 H         -57.9042   66.0657   -4.0372 H     7102  SAM7102      0.0000
     39 H         -58.0854   65.0143   -2.6090 H     7102  SAM7102      0.0000
     40 H         -56.8767   66.7377   -1.2026 H     7102  SAM7102      0.0000
     41 H         -57.0084   68.3773   -3.6945 H     7102  SAM7102      0.0000
     42 H         -57.3430   69.4896   -1.8833 H     7102  SAM7102      0.0000
     43 H         -54.9109   67.7630   -4.3944 H     7102  SAM7102      0.0000
     44 H         -53.2035   68.7984   -3.1682 H     7102  SAM7102      0.0000
     45 H         -54.2196   66.9202   -1.5019 H     7102  SAM7102      0.0000
     46 H         -54.0472   65.5711   -5.2448 H     7102  SAM7102      0.0000
     47 H         -50.1768   65.5993   -0.0625 H     7102  SAM7102      0.0000
     48 H         -48.4108   63.6495   -3.6129 H     7102  SAM7102      0.0000
     49 H         -49.6536   63.7441   -4.9682 H     7102  SAM7102      0.0000
     50 H         -59.8959   65.1288    1.5701 H     7102  SAM7102      0.0000
@<TRIPOS>BOND
     1     1     2    1
     2     1    28    1
     3     1    29    1
     4     2     3    1
     5     2     6    1
     6     2    30    1
     7     3     4   ar
     8     3     5   ar
     9     6     7    1
    10     6    31    1
    11     6    32    1
    12     7     8    1
    13     7    33    1
    14     7    34    1
    15     8     9    1
    16     8    10    1
    17     9    35    1
    18     9    36    1
    19     9    37    1
    20    10    11    1
    21    10    38    1
    22    10    39    1
    23    11    12    1
    24    11    13    1
    25    11    40    1
    26    12    17    1
    27    13    14    1
    28    13    15    1
    29    13    41    1
    30    14    42    1
    31    15    16    1
    32    15    17    1
    33    15    43    1
    34    16    44    1
    35    17    18    1
    36    17    45    1
    37    18    19   ar
    38    18    27   ar
    39    19    20   ar
    40    19    46    1
    41    20    21   ar
    42    21    22   ar
    43    21    27   ar
    44    22    23    1
    45    22    24   ar
    46    23    48    1
    47    23    49    1
    48    24    25   ar
    49    25    26   ar
    50    25    47    1
    51    26    27   ar
    52     1    50    1

