@<TRIPOS>MOLECULE
DMS_1_A_403
 10 9 0 0 0
SMALL
NO_CHARGES

@<TRIPOS>ATOM
      1 S           2.4730  -18.8170    8.0210 S.o    403  DMS403      0.0000
      2 O           3.7190  -18.9010    8.9430 O.2    403  DMS403      0.0000
      3 C1          1.1670  -18.2160    9.0790 C.3    403  DMS403      0.0000
      4 C2          1.8880  -20.4770    7.9000 C.3    403  DMS403      0.0000
      5 H           0.1933  -18.2868    8.5526 H      403  DMS403      0.0000
      6 H           1.3613  -17.1532    9.3297 H      403  DMS403      0.0000
      7 H           1.1252  -18.8059   10.0178 H      403  DMS403      0.0000
      8 H           0.8966  -20.4933    7.4028 H      403  DMS403      0.0000
      9 H           1.8040  -20.9358    8.9068 H      403  DMS403      0.0000
     10 H           2.6000  -21.0726    7.2929 H      403  DMS403      0.0000
@<TRIPOS>BOND
     1     1     2    2
     2     1     3    1
     3     1     4    1
     4     3     5    1
     5     3     6    1
     6     3     7    1
     7     4     8    1
     8     4     9    1
     9     4    10    1

