DMS_2_A_402
  -ISIS-            3D

 10  9  0  0  0  0  0  0  0  0  1 V2000
   -6.1270   -1.0130    6.2200 S   0  0  0  0  0
   -7.1080   -0.7480    7.3010 O   0  0  0  0  0
   -7.0320   -0.9650    4.6680 C   0  0  0  0  0
   -5.8460   -2.7580    6.2070 C   0  0  0  0  0
   -6.3751   -1.2978    3.8385 H   0  0  0  0  0
   -7.3594    0.0761    4.4699 H   0  0  0  0  0
   -7.9258   -1.6202    4.7214 H   0  0  0  0  0
   -5.2294   -3.0359    5.3280 H   0  0  0  0  0
   -6.8093   -3.3075    6.1719 H   0  0  0  0  0
   -5.3016   -3.0482    7.1289 H   0  0  0  0  0
  1  2  2  0  0  0
  1  3  1  0  0  0
  1  4  1  0  0  0
  3  5  1  0  0  0
  3  6  1  0  0  0
  3  7  1  0  0  0
  4  8  1  0  0  0
  4  9  1  0  0  0
  4 10  1  0  0  0
M  END
$$$$
