DMS_1_A_403
  -ISIS-            3D

 10  9  0  0  0  0  0  0  0  0  1 V2000
    2.4730  -18.8170    8.0210 S   0  0  0  0  0
    3.7190  -18.9010    8.9430 O   0  0  0  0  0
    1.1670  -18.2160    9.0790 C   0  0  0  0  0
    1.8880  -20.4770    7.9000 C   0  0  0  0  0
    0.1933  -18.2868    8.5526 H   0  0  0  0  0
    1.3613  -17.1532    9.3297 H   0  0  0  0  0
    1.1252  -18.8059   10.0178 H   0  0  0  0  0
    0.8966  -20.4933    7.4028 H   0  0  0  0  0
    1.8040  -20.9358    8.9068 H   0  0  0  0  0
    2.6000  -21.0726    7.2929 H   0  0  0  0  0
  1  2  2  0  0  0
  1  3  1  0  0  0
  1  4  1  0  0  0
  3  5  1  0  0  0
  3  6  1  0  0  0
  3  7  1  0  0  0
  4  8  1  0  0  0
  4  9  1  0  0  0
  4 10  1  0  0  0
M  END
$$$$
