@<TRIPOS>MOLECULE
DMS_1_A_405
 10 9 0 0 0
SMALL
NO_CHARGES

@<TRIPOS>ATOM
      1 S           5.7100    0.2780   18.1040 S.o    405  DMS405      0.0000
      2 O           6.8850    0.9460   17.4500 O.2    405  DMS405      0.0000
      3 C1          6.3780   -0.6130   19.4760 C.3    405  DMS405      0.0000
      4 C2          4.8810    1.5440   19.0380 C.3    405  DMS405      0.0000
      5 H           5.5551   -1.0139   20.1025 H      405  DMS405      0.0000
      6 H           7.0229    0.0469   20.0919 H      405  DMS405      0.0000
      7 H           6.9860   -1.4617   19.1011 H      405  DMS405      0.0000
      8 H           4.0929    1.0891   19.6724 H      405  DMS405      0.0000
      9 H           4.4064    2.2625   18.3388 H      405  DMS405      0.0000
     10 H           5.6038    2.0890   19.6792 H      405  DMS405      0.0000
@<TRIPOS>BOND
     1     1     2    2
     2     1     3    1
     3     1     4    1
     4     3     5    1
     5     3     6    1
     6     3     7    1
     7     4     8    1
     8     4     9    1
     9     4    10    1

