@<TRIPOS>MOLECULE
EDO_1_B_401
 10 9 0 0 0
SMALL
NO_CHARGES

@<TRIPOS>ATOM
      1 C1        -67.8330   53.1200  -14.9390 C.3    401  EDO401      0.0000
      2 O1        -67.5610   51.7670  -14.5000 O.3    401  EDO401      0.0000
      3 C2        -69.0690   53.2060  -15.8530 C.3    401  EDO401      0.0000
      4 O2        -70.0430   54.1700  -15.3850 O.3    401  EDO401      0.0000
      5 H         -66.9416   53.5176  -15.4687 H      401  EDO401      0.0000
      6 H         -67.9850   53.7611  -14.0448 H      401  EDO401      0.0000
      7 H         -66.8471   51.7985  -13.8770 H      401  EDO401      0.0000
      8 H         -69.5561   52.2097  -15.9157 H      401  EDO401      0.0000
      9 H         -68.7584   53.4738  -16.8850 H      401  EDO401      0.0000
     10 H         -70.8083   54.1077  -15.9411 H      401  EDO401      0.0000
@<TRIPOS>BOND
     1     1     2    1
     2     1     3    1
     3     1     5    1
     4     1     6    1
     5     2     7    1
     6     3     4    1
     7     3     8    1
     8     3     9    1
     9     4    10    1

