EDO_1_A_409
  -ISIS-            3D

 10  9  0  0  0  0  0  0  0  0  1 V2000
  -65.0220   53.4640   29.3830 C   0  0  0  0  0
  -65.5380   52.2890   30.0160 O   0  0  0  0  0
  -63.5560   53.5810   29.7800 C   0  0  0  0  0
  -62.7260   52.6690   29.0430 O   0  0  0  0  0
  -65.5897   54.3510   29.7358 H   0  0  0  0  0
  -65.1387   53.3971   28.2814 H   0  0  0  0  0
  -66.4539   52.2073   29.7859 H   0  0  0  0  0
  -63.4210   53.4181   30.8700 H   0  0  0  0  0
  -63.1987   54.6107   29.5689 H   0  0  0  0  0
  -63.0559   51.7978   29.2253 H   0  0  0  0  0
  1  2  1  0  0  0
  1  3  1  0  0  0
  1  5  1  0  0  0
  1  6  1  0  0  0
  2  7  1  0  0  0
  3  4  1  0  0  0
  3  8  1  0  0  0
  3  9  1  0  0  0
  4 10  1  0  0  0
M  END
$$$$
