@<TRIPOS>MOLECULE
EDO_2_B_413
 10 9 0 0 0
SMALL
NO_CHARGES

@<TRIPOS>ATOM
      1 C1       -112.5330   61.2540  -23.5140 C.3    413  EDO413      0.0000
      2 O1       -113.9370   61.0880  -23.2990 O.3    413  EDO413      0.0000
      3 C2       -112.3840   61.7930  -24.9270 C.3    413  EDO413      0.0000
      4 O2       -111.9110   60.7540  -25.7900 O.3    413  EDO413      0.0000
      5 H        -112.0000   60.2912  -23.3726 H      413  EDO413      0.0000
      6 H        -112.1326   61.9796  -22.7750 H      413  EDO413      0.0000
      7 H        -114.0658   60.7657  -22.4159 H      413  EDO413      0.0000
      8 H        -111.6346   62.6117  -24.9373 H      413  EDO413      0.0000
      9 H        -113.3285   62.2233  -25.3202 H      413  EDO413      0.0000
     10 H        -112.6377   60.1673  -25.9525 H      413  EDO413      0.0000
@<TRIPOS>BOND
     1     1     2    1
     2     1     3    1
     3     1     5    1
     4     1     6    1
     5     2     7    1
     6     3     4    1
     7     3     8    1
     8     3     9    1
     9     4    10    1

