@<TRIPOS>MOLECULE
EDO_3_B_409
 10 9 0 0 0
SMALL
NO_CHARGES

@<TRIPOS>ATOM
      1 C1        -79.6860   -4.0470  -26.8720 C.3    409  EDO409      0.0000
      2 O1        -78.7940   -5.1740  -26.7850 O.3    409  EDO409      0.0000
      3 C2        -80.2200   -3.9290  -28.2890 C.3    409  EDO409      0.0000
      4 O2        -79.1630   -3.3840  -29.0920 O.3    409  EDO409      0.0000
      5 H         -79.1661   -3.1205  -26.5505 H      409  EDO409      0.0000
      6 H         -80.5241   -4.2125  -26.1635 H      409  EDO409      0.0000
      7 H         -78.1020   -5.0171  -27.4160 H      409  EDO409      0.0000
      8 H         -81.0932   -3.2433  -28.3165 H      409  EDO409      0.0000
      9 H         -80.5442   -4.9133  -28.6864 H      409  EDO409      0.0000
     10 H         -79.4837   -3.2931  -29.9793 H      409  EDO409      0.0000
@<TRIPOS>BOND
     1     1     2    1
     2     1     3    1
     3     1     5    1
     4     1     6    1
     5     2     7    1
     6     3     4    1
     7     3     8    1
     8     3     9    1
     9     4    10    1

