@<TRIPOS>MOLECULE
EDO_2_A_414
 10 9 0 0 0
SMALL
NO_CHARGES

@<TRIPOS>ATOM
      1 C1       -103.3590   66.8230   32.4220 C.3    414  EDO414      0.0000
      2 O1       -104.1070   66.8990   31.2040 O.3    414  EDO414      0.0000
      3 C2       -101.8950   67.2190   32.1980 C.3    414  EDO414      0.0000
      4 O2       -101.7980   68.3720   31.3460 O.3    414  EDO414      0.0000
      5 H        -103.4309   65.7960   32.8350 H      414  EDO414      0.0000
      6 H        -103.8244   67.5050   33.1645 H      414  EDO414      0.0000
      7 H        -103.7052   67.5823   30.6788 H      414  EDO414      0.0000
      8 H        -101.3558   66.3819   31.7071 H      414  EDO414      0.0000
      9 H        -101.3825   67.4065   33.1650 H      414  EDO414      0.0000
     10 H        -101.8284   69.1480   31.8900 H      414  EDO414      0.0000
@<TRIPOS>BOND
     1     1     2    1
     2     1     3    1
     3     1     5    1
     4     1     6    1
     5     2     7    1
     6     3     4    1
     7     3     8    1
     8     3     9    1
     9     4    10    1

