@<TRIPOS>MOLECULE
EDO_1_A_404
 10 9 0 0 0
SMALL
NO_CHARGES

@<TRIPOS>ATOM
      1 C1        -53.5720   83.5960   36.0650 C.3    404  EDO404      0.0000
      2 O1        -53.8290   83.1340   37.4040 O.3    404  EDO404      0.0000
      3 C2        -54.6880   84.4270   35.4370 C.3    404  EDO404      0.0000
      4 O2        -55.0670   85.4980   36.3270 O.3    404  EDO404      0.0000
      5 H         -53.3413   82.7253   35.4146 H      404  EDO404      0.0000
      6 H         -52.6447   84.2066   36.0937 H      404  EDO404      0.0000
      7 H         -54.3594   82.3498   37.3519 H      404  EDO404      0.0000
      8 H         -55.5767   83.7919   35.2392 H      404  EDO404      0.0000
      9 H         -54.3653   84.8558   34.4661 H      404  EDO404      0.0000
     10 H         -54.9975   85.1554   37.2110 H      404  EDO404      0.0000
@<TRIPOS>BOND
     1     1     2    1
     2     1     3    1
     3     1     5    1
     4     1     6    1
     5     2     7    1
     6     3     4    1
     7     3     8    1
     8     3     9    1
     9     4    10    1

