@<TRIPOS>MOLECULE
EDO_1_B_413
 10 9 0 0 0
SMALL
NO_CHARGES

@<TRIPOS>ATOM
      1 C1        -41.4700   66.8300  -23.5140 C.3    413  EDO413      0.0000
      2 O1        -40.9120   68.1280  -23.2990 O.3    413  EDO413      0.0000
      3 C2        -41.0770   66.4310  -24.9270 C.3    413  EDO413      0.0000
      4 O2        -42.2140   66.5410  -25.7900 O.3    413  EDO413      0.0000
      5 H         -42.5715   66.8483  -23.3784 H      413  EDO413      0.0000
      6 H         -41.0439   66.1223  -22.7717 H      413  EDO413      0.0000
      7 H         -41.2462   68.4607  -22.4766 H      413  EDO413      0.0000
      8 H         -40.7282   65.3765  -24.9364 H      413  EDO413      0.0000
      9 H         -40.2413   67.0515  -25.3126 H      413  EDO413      0.0000
     10 H         -41.9199   66.4226  -26.6835 H      413  EDO413      0.0000
@<TRIPOS>BOND
     1     1     2    1
     2     1     3    1
     3     1     5    1
     4     1     6    1
     5     2     7    1
     6     3     4    1
     7     3     8    1
     8     3     9    1
     9     4    10    1

