EDO_1_B_401
  -ISIS-            3D

 10  9  0  0  0  0  0  0  0  0  1 V2000
  -67.8330   53.1200  -14.9390 C   0  0  0  0  0
  -67.5610   51.7670  -14.5000 O   0  0  0  0  0
  -69.0690   53.2060  -15.8530 C   0  0  0  0  0
  -70.0430   54.1700  -15.3850 O   0  0  0  0  0
  -66.9416   53.5176  -15.4687 H   0  0  0  0  0
  -67.9850   53.7611  -14.0448 H   0  0  0  0  0
  -66.8471   51.7985  -13.8770 H   0  0  0  0  0
  -69.5561   52.2097  -15.9157 H   0  0  0  0  0
  -68.7584   53.4738  -16.8850 H   0  0  0  0  0
  -70.8083   54.1077  -15.9411 H   0  0  0  0  0
  1  2  1  0  0  0
  1  3  1  0  0  0
  1  5  1  0  0  0
  1  6  1  0  0  0
  2  7  1  0  0  0
  3  4  1  0  0  0
  3  8  1  0  0  0
  3  9  1  0  0  0
  4 10  1  0  0  0
M  END
$$$$
