@<TRIPOS>MOLECULE
EDO_2_B_405
 10 9 0 0 0
SMALL
NO_CHARGES

@<TRIPOS>ATOM
      1 C1       -114.9650   67.6110  -33.0620 C.3    405  EDO405      0.0000
      2 O1       -113.7130   68.2930  -32.9320 O.3    405  EDO405      0.0000
      3 C2       -115.4530   67.1890  -31.6800 C.3    405  EDO405      0.0000
      4 O2       -114.8800   65.9290  -31.3190 O.3    405  EDO405      0.0000
      5 H        -114.8646   66.7452  -33.7488 H      405  EDO405      0.0000
      6 H        -115.6922   68.3107  -33.5240 H      405  EDO405      0.0000
      7 H        -113.1055   67.6888  -32.5238 H      405  EDO405      0.0000
      8 H        -116.5606   67.1013  -31.6750 H      405  EDO405      0.0000
      9 H        -115.1909   67.9473  -30.9139 H      405  EDO405      0.0000
     10 H        -115.4201   65.2361  -31.6759 H      405  EDO405      0.0000
@<TRIPOS>BOND
     1     1     2    1
     2     1     3    1
     3     1     5    1
     4     1     6    1
     5     2     7    1
     6     3     4    1
     7     3     8    1
     8     3     9    1
     9     4    10    1

