EDO_3_B_410
  -ISIS-            3D

 10  9  0  0  0  0  0  0  0  0  1 V2000
  -87.1590    9.8750  -31.5460 C   0  0  0  0  0
  -86.6580    8.9490  -30.5660 O   0  0  0  0  0
  -88.4990    9.4210  -32.1160 C   0  0  0  0  0
  -89.3820    9.0090  -31.0640 O   0  0  0  0  0
  -86.4117    9.9755  -32.3601 H   0  0  0  0  0
  -87.2607   10.8786  -31.0804 H   0  0  0  0  0
  -87.1806    9.0633  -29.7822 H   0  0  0  0  0
  -88.3526    8.5795  -32.8264 H   0  0  0  0  0
  -88.9747   10.2456  -32.6860 H   0  0  0  0  0
  -89.1217    8.1347  -30.8023 H   0  0  0  0  0
  1  2  1  0  0  0
  1  3  1  0  0  0
  1  5  1  0  0  0
  1  6  1  0  0  0
  2  7  1  0  0  0
  3  4  1  0  0  0
  3  8  1  0  0  0
  3  9  1  0  0  0
  4 10  1  0  0  0
M  END
$$$$
