EDO_2_A_411
  -ISIS-            3D

 10  9  0  0  0  0  0  0  0  0  1 V2000
 -110.9890   58.1370   42.5510 C   0  0  0  0  0
 -110.3400   59.4000   42.3290 O   0  0  0  0  0
 -112.0490   58.2560   43.6470 C   0  0  0  0  0
 -112.8670   57.0770   43.6720 O   0  0  0  0  0
 -110.2347   57.3711   42.8300 H   0  0  0  0  0
 -111.4604   57.8074   41.6007 H   0  0  0  0  0
 -109.6498   59.2708   41.6917 H   0  0  0  0  0
 -112.6882   59.1486   43.4782 H   0  0  0  0  0
 -111.5659   58.3830   44.6377 H   0  0  0  0  0
 -113.5639   57.1828   43.0381 H   0  0  0  0  0
  1  2  1  0  0  0
  1  3  1  0  0  0
  1  5  1  0  0  0
  1  6  1  0  0  0
  2  7  1  0  0  0
  3  4  1  0  0  0
  3  8  1  0  0  0
  3  9  1  0  0  0
  4 10  1  0  0  0
M  END
$$$$
