@<TRIPOS>MOLECULE
EDO_3_A_401
 10 9 0 0 0
SMALL
NO_CHARGES

@<TRIPOS>ATOM
      1 C1        -86.2770   38.6410   15.7480 C.3    401  EDO401      0.0000
      2 O1        -87.3810   39.4880   15.4430 O.3    401  EDO401      0.0000
      3 C2        -85.4970   38.5670   14.4570 C.3    401  EDO401      0.0000
      4 O2        -84.7650   39.7790   14.2550 O.3    401  EDO401      0.0000
      5 H         -86.6573   37.6424   16.0458 H      401  EDO401      0.0000
      6 H         -85.6781   39.0512   16.5870 H      401  EDO401      0.0000
      7 H         -87.0203   40.3314   15.1961 H      401  EDO401      0.0000
      8 H         -86.1628   38.3712   13.5898 H      401  EDO401      0.0000
      9 H         -84.7775   37.7219   14.5094 H      401  EDO401      0.0000
     10 H         -84.2787   39.7001   13.4452 H      401  EDO401      0.0000
@<TRIPOS>BOND
     1     1     2    1
     2     1     3    1
     3     1     5    1
     4     1     6    1
     5     2     7    1
     6     3     4    1
     7     3     8    1
     8     3     9    1
     9     4    10    1

