@<TRIPOS>MOLECULE
EDO_2_B_404
 10 9 0 0 0
SMALL
NO_CHARGES

@<TRIPOS>ATOM
      1 C1        -92.4460   66.7540  -12.2340 C.3    404  EDO404      0.0000
      2 O1        -92.2160   67.8620  -11.3530 O.3    404  EDO404      0.0000
      3 C2        -91.2140   66.4000  -13.0580 C.3    404  EDO404      0.0000
      4 O2        -90.9100   67.4720  -13.9610 O.3    404  EDO404      0.0000
      5 H         -93.2940   66.9885  -12.9126 H      404  EDO404      0.0000
      6 H         -92.7529   65.8759  -11.6270 H      404  EDO404      0.0000
      7 H         -93.0559   68.1866  -11.0559 H      404  EDO404      0.0000
      8 H         -91.3953   65.4724  -13.6409 H      404  EDO404      0.0000
      9 H         -90.3472   66.2114  -12.3898 H      404  EDO404      0.0000
     10 H         -90.0601   67.3042  -14.3464 H      404  EDO404      0.0000
@<TRIPOS>BOND
     1     1     2    1
     2     1     3    1
     3     1     5    1
     4     1     6    1
     5     2     7    1
     6     3     4    1
     7     3     8    1
     8     3     9    1
     9     4    10    1

