@<TRIPOS>MOLECULE
EDO_3_B_406
 10 9 0 0 0
SMALL
NO_CHARGES

@<TRIPOS>ATOM
      1 C1        -77.5010    7.0680  -32.0200 C.3    406  EDO406      0.0000
      2 O1        -78.5320    7.4610  -31.1070 O.3    406  EDO406      0.0000
      3 C2        -76.3200    6.5340  -31.2210 C.3    406  EDO406      0.0000
      4 O2        -75.7110    7.6170  -30.5150 O.3    406  EDO406      0.0000
      5 H         -77.1981    7.9308  -32.6498 H      406  EDO406      0.0000
      6 H         -77.8912    6.2781  -32.6964 H      406  EDO406      0.0000
      7 H         -79.2658    7.7859  -31.6115 H      406  EDO406      0.0000
      8 H         -75.5664    6.0845  -31.9002 H      406  EDO406      0.0000
      9 H         -76.6364    5.7437  -30.5086 H      406  EDO406      0.0000
     10 H         -76.4003    8.0248  -30.0042 H      406  EDO406      0.0000
@<TRIPOS>BOND
     1     1     2    1
     2     1     3    1
     3     1     5    1
     4     1     6    1
     5     2     7    1
     6     3     4    1
     7     3     8    1
     8     3     9    1
     9     4    10    1

