EDO_2_B_413
  -ISIS-            3D

 10  9  0  0  0  0  0  0  0  0  1 V2000
 -112.5330   61.2540  -23.5140 C   0  0  0  0  0
 -113.9370   61.0880  -23.2990 O   0  0  0  0  0
 -112.3840   61.7930  -24.9270 C   0  0  0  0  0
 -111.9110   60.7540  -25.7900 O   0  0  0  0  0
 -112.0000   60.2912  -23.3726 H   0  0  0  0  0
 -112.1326   61.9796  -22.7750 H   0  0  0  0  0
 -114.0658   60.7657  -22.4159 H   0  0  0  0  0
 -111.6346   62.6117  -24.9373 H   0  0  0  0  0
 -113.3285   62.2233  -25.3202 H   0  0  0  0  0
 -112.6377   60.1673  -25.9525 H   0  0  0  0  0
  1  2  1  0  0  0
  1  3  1  0  0  0
  1  5  1  0  0  0
  1  6  1  0  0  0
  2  7  1  0  0  0
  3  4  1  0  0  0
  3  8  1  0  0  0
  3  9  1  0  0  0
  4 10  1  0  0  0
M  END
$$$$
