EDO_1_A_413
  -ISIS-            3D

 10  9  0  0  0  0  0  0  0  0  1 V2000
  -50.1880   50.2850   34.8300 C   0  0  0  0  0
  -50.3910   50.3540   36.2610 O   0  0  0  0  0
  -49.3470   51.4340   34.2670 C   0  0  0  0  0
  -48.0960   50.9550   33.7600 O   0  0  0  0  0
  -51.1835   50.2845   34.3365 H   0  0  0  0  0
  -49.7183   49.3102   34.5796 H   0  0  0  0  0
  -50.8220   49.5568   36.5396 H   0  0  0  0  0
  -49.1450   52.1851   35.0579 H   0  0  0  0  0
  -49.8965   51.9641   33.4604 H   0  0  0  0  0
  -48.2331   50.6202   32.8833 H   0  0  0  0  0
  1  2  1  0  0  0
  1  3  1  0  0  0
  1  5  1  0  0  0
  1  6  1  0  0  0
  2  7  1  0  0  0
  3  4  1  0  0  0
  3  8  1  0  0  0
  3  9  1  0  0  0
  4 10  1  0  0  0
M  END
$$$$
