EDO_1_B_405
  -ISIS-            3D

 10  9  0  0  0  0  0  0  0  0  1 V2000
  -34.7490   65.7570  -33.0620 C   0  0  0  0  0
  -34.7840   64.3310  -32.9320 O   0  0  0  0  0
  -34.8700   66.3910  -31.6800 C   0  0  0  0  0
  -36.2480   66.5250  -31.3190 O   0  0  0  0  0
  -35.5581   66.1050  -33.7377 H   0  0  0  0  0
  -33.7824   66.0492  -33.5246 H   0  0  0  0  0
  -34.7129   63.9533  -33.7985 H   0  0  0  0  0
  -34.4207   67.4064  -31.6943 H   0  0  0  0  0
  -34.3221   65.8080  -30.9108 H   0  0  0  0  0
  -36.6016   65.6473  -31.2470 H   0  0  0  0  0
  1  2  1  0  0  0
  1  3  1  0  0  0
  1  5  1  0  0  0
  1  6  1  0  0  0
  2  7  1  0  0  0
  3  4  1  0  0  0
  3  8  1  0  0  0
  3  9  1  0  0  0
  4 10  1  0  0  0
M  END
$$$$
