@<TRIPOS>MOLECULE
EDO_2_A_410
 10 9 0 0 0
SMALL
NO_CHARGES

@<TRIPOS>ATOM
      1 C1       -107.1400   55.4730   46.2210 C.3    410  EDO410      0.0000
      2 O1       -108.5450   55.2270   46.3560 O.3    410  EDO410      0.0000
      3 C2       -106.4060   54.7400   47.3310 C.3    410  EDO410      0.0000
      4 O2       -106.9780   53.4330   47.4110 O.3    410  EDO410      0.0000
      5 H        -106.9387   56.5636   46.2652 H      410  EDO410      0.0000
      6 H        -106.7946   55.1061   45.2308 H      410  EDO410      0.0000
      7 H        -108.9760   55.5100   45.5599 H      410  EDO410      0.0000
      8 H        -106.5418   55.2685   48.2985 H      410  EDO410      0.0000
      9 H        -105.3182   54.6738   47.1222 H      410  EDO410      0.0000
     10 H        -106.6949   53.0315   48.2223 H      410  EDO410      0.0000
@<TRIPOS>BOND
     1     1     2    1
     2     1     3    1
     3     1     5    1
     4     1     6    1
     5     2     7    1
     6     3     4    1
     7     3     8    1
     8     3     9    1
     9     4    10    1

