EDO_1_A_408
  -ISIS-            3D

 10  9  0  0  0  0  0  0  0  0  1 V2000
  -52.4050   76.4130   44.6270 C   0  0  0  0  0
  -53.4720   76.1230   45.5200 O   0  0  0  0  0
  -52.7600   77.6940   43.8930 C   0  0  0  0  0
  -54.0930   77.5690   43.4070 O   0  0  0  0  0
  -52.2793   75.5744   43.9096 H   0  0  0  0  0
  -51.4538   76.5294   45.1874 H   0  0  0  0  0
  -53.2650   75.3198   45.9787 H   0  0  0  0  0
  -52.0691   77.8752   43.0446 H   0  0  0  0  0
  -52.6953   78.5706   44.5715 H   0  0  0  0  0
  -54.6163   77.2375   44.1280 H   0  0  0  0  0
  1  2  1  0  0  0
  1  3  1  0  0  0
  1  5  1  0  0  0
  1  6  1  0  0  0
  2  7  1  0  0  0
  3  4  1  0  0  0
  3  8  1  0  0  0
  3  9  1  0  0  0
  4 10  1  0  0  0
M  END
$$$$
