@<TRIPOS>MOLECULE
EDO_1_A_414
 10 9 0 0 0
SMALL
NO_CHARGES

@<TRIPOS>ATOM
      1 C1        -41.2340   56.1000   32.4220 C.3    414  EDO414      0.0000
      2 O1        -40.7940   56.7100   31.2040 O.3    414  EDO414      0.0000
      3 C2        -41.6230   54.6340   32.1980 C.3    414  EDO414      0.0000
      4 O2        -40.6740   53.9730   31.3460 O.3    414  EDO414      0.0000
      5 H         -42.0798   56.6705   32.8621 H      414  EDO414      0.0000
      6 H         -40.4003   56.1526   33.1533 H      414  EDO414      0.0000
      7 H         -41.5304   57.1608   30.8117 H      414  EDO414      0.0000
      8 H         -42.6244   54.5777   31.7206 H      414  EDO414      0.0000
      9 H         -41.6919   54.0917   33.1632 H      414  EDO414      0.0000
     10 H         -40.3158   54.6402   30.7695 H      414  EDO414      0.0000
@<TRIPOS>BOND
     1     1     2    1
     2     1     3    1
     3     1     5    1
     4     1     6    1
     5     2     7    1
     6     3     4    1
     7     3     8    1
     8     3     9    1
     9     4    10    1

