@<TRIPOS>MOLECULE
EDO_1_B_409
 10 9 0 0 0
SMALL
NO_CHARGES

@<TRIPOS>ATOM
      1 C1        -32.0450   63.5960  -26.8720 C.3    409  EDO409      0.0000
      2 O1        -31.5140   64.9320  -26.7850 O.3    409  EDO409      0.0000
      3 C2        -31.8790   63.0750  -28.2890 C.3    409  EDO409      0.0000
      4 O2        -32.8800   63.7180  -29.0920 O.3    409  EDO409      0.0000
      5 H         -33.1121   63.6024  -26.5684 H      409  EDO409      0.0000
      6 H         -31.5110   62.9375  -26.1538 H      409  EDO409      0.0000
      7 H         -30.5989   64.8778  -26.5431 H      409  EDO409      0.0000
      8 H         -32.0455   61.9787  -28.3245 H      409  EDO409      0.0000
      9 H         -30.8658   63.2760  -28.6938 H      409  EDO409      0.0000
     10 H         -32.7669   64.6538  -28.9757 H      409  EDO409      0.0000
@<TRIPOS>BOND
     1     1     2    1
     2     1     3    1
     3     1     5    1
     4     1     6    1
     5     2     7    1
     6     3     4    1
     7     3     8    1
     8     3     9    1
     9     4    10    1

