@<TRIPOS>MOLECULE
EDO_1_A_413
 10 9 0 0 0
SMALL
NO_CHARGES

@<TRIPOS>ATOM
      1 C1        -50.1880   50.2850   34.8300 C.3    413  EDO413      0.0000
      2 O1        -50.3910   50.3540   36.2610 O.3    413  EDO413      0.0000
      3 C2        -49.3470   51.4340   34.2670 C.3    413  EDO413      0.0000
      4 O2        -48.0960   50.9550   33.7600 O.3    413  EDO413      0.0000
      5 H         -51.1835   50.2845   34.3365 H      413  EDO413      0.0000
      6 H         -49.7183   49.3102   34.5796 H      413  EDO413      0.0000
      7 H         -50.8220   49.5568   36.5396 H      413  EDO413      0.0000
      8 H         -49.1450   52.1851   35.0579 H      413  EDO413      0.0000
      9 H         -49.8965   51.9641   33.4604 H      413  EDO413      0.0000
     10 H         -48.2331   50.6202   32.8833 H      413  EDO413      0.0000
@<TRIPOS>BOND
     1     1     2    1
     2     1     3    1
     3     1     5    1
     4     1     6    1
     5     2     7    1
     6     3     4    1
     7     3     8    1
     8     3     9    1
     9     4    10    1

