EDO_1_A_402
  -ISIS-            3D

 10  9  0  0  0  0  0  0  0  0  1 V2000
  -66.9740   25.3230    0.0750 C   0  0  0  0  0
  -66.0870   24.6910    1.0400 O   0  0  0  0  0
  -67.5470   24.3950   -0.9900 C   0  0  0  0  0
  -67.3940   23.0100   -0.5890 O   0  0  0  0  0
  -66.4376   26.1645   -0.4130 H   0  0  0  0  0
  -67.8170   25.7803    0.6370 H   0  0  0  0  0
  -65.8140   25.3495    1.6645 H   0  0  0  0  0
  -67.0109   24.5390   -1.9515 H   0  0  0  0  0
  -68.6188   24.6085   -1.1792 H   0  0  0  0  0
  -66.6914   22.9821    0.0505 H   0  0  0  0  0
  1  2  1  0  0  0
  1  3  1  0  0  0
  1  5  1  0  0  0
  1  6  1  0  0  0
  2  7  1  0  0  0
  3  4  1  0  0  0
  3  8  1  0  0  0
  3  9  1  0  0  0
  4 10  1  0  0  0
M  END
$$$$
