EDO_3_A_408
  -ISIS-            3D

 10  9  0  0  0  0  0  0  0  0  1 V2000
  -58.4050    7.1780   44.6270 C   0  0  0  0  0
  -58.1230    8.2470   45.5200 O   0  0  0  0  0
  -57.1190    6.8440   43.8930 C   0  0  0  0  0
  -56.5600    8.0610   43.4070 O   0  0  0  0  0
  -59.1941    7.4884   43.9096 H   0  0  0  0  0
  -58.7805    6.2963   45.1872 H   0  0  0  0  0
  -58.9224    8.4690   45.9799 H   0  0  0  0  0
  -57.3078    6.1552   43.0445 H   0  0  0  0  0
  -56.3922    6.3490   44.5710 H   0  0  0  0  0
  -56.5859    8.6798   44.1276 H   0  0  0  0  0
  1  2  1  0  0  0
  1  3  1  0  0  0
  1  5  1  0  0  0
  1  6  1  0  0  0
  2  7  1  0  0  0
  3  4  1  0  0  0
  3  8  1  0  0  0
  3  9  1  0  0  0
  4 10  1  0  0  0
M  END
$$$$
