EDO_2_B_404
  -ISIS-            3D

 10  9  0  0  0  0  0  0  0  0  1 V2000
  -92.4460   66.7540  -12.2340 C   0  0  0  0  0
  -92.2160   67.8620  -11.3530 O   0  0  0  0  0
  -91.2140   66.4000  -13.0580 C   0  0  0  0  0
  -90.9100   67.4720  -13.9610 O   0  0  0  0  0
  -93.2940   66.9885  -12.9126 H   0  0  0  0  0
  -92.7529   65.8759  -11.6270 H   0  0  0  0  0
  -93.0559   68.1866  -11.0559 H   0  0  0  0  0
  -91.3953   65.4724  -13.6409 H   0  0  0  0  0
  -90.3472   66.2114  -12.3898 H   0  0  0  0  0
  -90.0601   67.3042  -14.3464 H   0  0  0  0  0
  1  2  1  0  0  0
  1  3  1  0  0  0
  1  5  1  0  0  0
  1  6  1  0  0  0
  2  7  1  0  0  0
  3  4  1  0  0  0
  3  8  1  0  0  0
  3  9  1  0  0  0
  4 10  1  0  0  0
M  END
$$$$
