@<TRIPOS>MOLECULE
EDO_3_B_401
 10 9 0 0 0
SMALL
NO_CHARGES

@<TRIPOS>ATOM
      1 C1        -70.8640   32.1850  -14.9390 C.3    401  EDO401      0.0000
      2 O1        -72.1720   32.6260  -14.5000 O.3    401  EDO401      0.0000
      3 C2        -70.1720   33.2120  -15.8530 C.3    401  EDO401      0.0000
      4 O2        -68.8500   33.5740  -15.3850 O.3    401  EDO401      0.0000
      5 H         -70.9661   31.2160  -15.4722 H      401  EDO401      0.0000
      6 H         -70.2361   31.9905  -14.0439 H      401  EDO401      0.0000
      7 H         -72.5504   31.9408  -13.9648 H      401  EDO401      0.0000
      8 H         -70.7902   34.1301  -15.9422 H      401  EDO401      0.0000
      9 H         -70.0786   32.7993  -16.8790 H      401  EDO401      0.0000
     10 H         -68.9531   34.1929  -14.6742 H      401  EDO401      0.0000
@<TRIPOS>BOND
     1     1     2    1
     2     1     3    1
     3     1     5    1
     4     1     6    1
     5     2     7    1
     6     3     4    1
     7     3     8    1
     8     3     9    1
     9     4    10    1

