@<TRIPOS>MOLECULE
EDO_2_A_409
 10 9 0 0 0
SMALL
NO_CHARGES

@<TRIPOS>ATOM
      1 C1        -89.1820   47.5400   29.3830 C.3    409  EDO409      0.0000
      2 O1        -87.9070   47.6810   30.0160 O.3    409  EDO409      0.0000
      3 C2        -90.0170   48.7510   29.7800 C.3    409  EDO409      0.0000
      4 O2        -89.6420   49.9260   29.0430 O.3    409  EDO409      0.0000
      5 H         -89.6558   46.6033   29.7431 H      409  EDO409      0.0000
      6 H         -89.0663   47.4597   28.2823 H      409  EDO409      0.0000
      7 H         -87.5244   48.4858   29.6881 H      409  EDO409      0.0000
      8 H         -89.9331   48.9463   30.8701 H      409  EDO409      0.0000
      9 H         -91.0877   48.5355   29.5753 H      409  EDO409      0.0000
     10 H         -90.1961   50.6416   29.3249 H      409  EDO409      0.0000
@<TRIPOS>BOND
     1     1     2    1
     2     1     3    1
     3     1     5    1
     4     1     6    1
     5     2     7    1
     6     3     4    1
     7     3     8    1
     8     3     9    1
     9     4    10    1

