@<TRIPOS>MOLECULE
EDO_2_B_403
 10 9 0 0 0
SMALL
NO_CHARGES

@<TRIPOS>ATOM
      1 C1        -85.3960   68.7610  -20.1640 C.3    403  EDO403      0.0000
      2 O1        -85.9840   69.9160  -19.5200 O.3    403  EDO403      0.0000
      3 C2        -84.7030   69.2520  -21.4360 C.3    403  EDO403      0.0000
      4 O2        -84.0900   68.2030  -22.1870 O.3    403  EDO403      0.0000
      5 H         -86.1893   68.0232  -20.4059 H      403  EDO403      0.0000
      6 H         -84.6663   68.2770  -19.4816 H      403  EDO403      0.0000
      7 H         -86.3589   69.6343  -18.6959 H      403  EDO403      0.0000
      8 H         -83.9165   69.9881  -21.1677 H      403  EDO403      0.0000
      9 H         -85.4284   69.7893  -22.0838 H      403  EDO403      0.0000
     10 H         -84.7663   67.7459  -22.6693 H      403  EDO403      0.0000
@<TRIPOS>BOND
     1     1     2    1
     2     1     3    1
     3     1     5    1
     4     1     6    1
     5     2     7    1
     6     3     4    1
     7     3     8    1
     8     3     9    1
     9     4    10    1

