EDO_2_B_409
  -ISIS-            3D

 10  9  0  0  0  0  0  0  0  0  1 V2000
 -114.4450   71.0330  -26.8720 C   0  0  0  0  0
 -115.8680   70.8240  -26.7850 O   0  0  0  0  0
 -114.0770   71.4370  -28.2890 C   0  0  0  0  0
 -114.1340   70.2490  -29.0920 O   0  0  0  0  0
 -113.9027   70.1155  -26.5606 H   0  0  0  0  0
 -114.1578   71.8417  -26.1665 H   0  0  0  0  0
 -116.0764   70.5845  -25.8918 H   0  0  0  0  0
 -113.0442   71.8410  -28.3249 H   0  0  0  0  0
 -114.7587   72.2145  -28.6916 H   0  0  0  0  0
 -115.0234   69.9220  -29.0304 H   0  0  0  0  0
  1  2  1  0  0  0
  1  3  1  0  0  0
  1  5  1  0  0  0
  1  6  1  0  0  0
  2  7  1  0  0  0
  3  4  1  0  0  0
  3  8  1  0  0  0
  3  9  1  0  0  0
  4 10  1  0  0  0
M  END
$$$$
