@<TRIPOS>MOLECULE
EDO_1_A_407
 10 9 0 0 0
SMALL
NO_CHARGES

@<TRIPOS>ATOM
      1 C1        -49.9320   54.5510   12.8540 C.3    407  EDO407      0.0000
      2 O1        -50.4310   55.4410   13.8600 O.3    407  EDO407      0.0000
      3 C2        -48.4080   54.5400   12.8870 C.3    407  EDO407      0.0000
      4 O2        -47.8690   55.2270   11.7500 O.3    407  EDO407      0.0000
      5 H         -50.3238   54.8300   11.8537 H      407  EDO407      0.0000
      6 H         -50.3195   53.5345   13.0751 H      407  EDO407      0.0000
      7 H         -50.5367   56.2991   13.4706 H      407  EDO407      0.0000
      8 H         -48.0453   53.4913   12.8503 H      407  EDO407      0.0000
      9 H         -48.0115   54.9744   13.8285 H      407  EDO407      0.0000
     10 H         -47.7366   56.1352   11.9882 H      407  EDO407      0.0000
@<TRIPOS>BOND
     1     1     2    1
     2     1     3    1
     3     1     5    1
     4     1     6    1
     5     2     7    1
     6     3     4    1
     7     3     8    1
     8     3     9    1
     9     4    10    1

