@<TRIPOS>MOLECULE
EDO_1_A_411
 10 9 0 0 0
SMALL
NO_CHARGES

@<TRIPOS>ATOM
      1 C1        -44.9410   67.0500   42.5510 C.3    411  EDO411      0.0000
      2 O1        -44.1720   65.8570   42.3290 O.3    411  EDO411      0.0000
      3 C2        -44.3080   67.9090   43.6470 C.3    411  EDO411      0.0000
      4 O2        -44.9200   69.2070   43.6720 O.3    411  EDO411      0.0000
      5 H         -45.9891   66.7888   42.8083 H      411  EDO411      0.0000
      6 H         -44.9737   67.6203   41.5993 H      411  EDO411      0.0000
      7 H         -44.4483   65.2028   42.9570 H      411  EDO411      0.0000
      8 H         -43.2200   68.0248   43.4551 H      411  EDO411      0.0000
      9 H         -44.4236   67.4210   44.6376 H      411  EDO411      0.0000
     10 H         -44.4608   69.7398   44.3080 H      411  EDO411      0.0000
@<TRIPOS>BOND
     1     1     2    1
     2     1     3    1
     3     1     5    1
     4     1     6    1
     5     2     7    1
     6     3     4    1
     7     3     8    1
     8     3     9    1
     9     4    10    1

