@<TRIPOS>MOLECULE
EDO_1_B_405
 10 9 0 0 0
SMALL
NO_CHARGES

@<TRIPOS>ATOM
      1 C1        -34.7490   65.7570  -33.0620 C.3    405  EDO405      0.0000
      2 O1        -34.7840   64.3310  -32.9320 O.3    405  EDO405      0.0000
      3 C2        -34.8700   66.3910  -31.6800 C.3    405  EDO405      0.0000
      4 O2        -36.2480   66.5250  -31.3190 O.3    405  EDO405      0.0000
      5 H         -35.5581   66.1050  -33.7377 H      405  EDO405      0.0000
      6 H         -33.7824   66.0492  -33.5246 H      405  EDO405      0.0000
      7 H         -34.7129   63.9533  -33.7985 H      405  EDO405      0.0000
      8 H         -34.4207   67.4064  -31.6943 H      405  EDO405      0.0000
      9 H         -34.3221   65.8080  -30.9108 H      405  EDO405      0.0000
     10 H         -36.6016   65.6473  -31.2470 H      405  EDO405      0.0000
@<TRIPOS>BOND
     1     1     2    1
     2     1     3    1
     3     1     5    1
     4     1     6    1
     5     2     7    1
     6     3     4    1
     7     3     8    1
     8     3     9    1
     9     4    10    1

