EDO_1_B_402
  -ISIS-            3D

 10  9  0  0  0  0  0  0  0  0  1 V2000
  -76.8330   63.6270   -0.0920 C   0  0  0  0  0
  -76.2180   64.5960   -0.9660 O   0  0  0  0  0
  -77.5920   64.2000    1.1070 C   0  0  0  0  0
  -78.3860   65.3420    0.7240 O   0  0  0  0  0
  -76.0653   62.9043    0.2580 H   0  0  0  0  0
  -77.5443   63.0356   -0.7070 H   0  0  0  0  0
  -75.3751   64.8313   -0.6010 H   0  0  0  0  0
  -76.8721   64.5205    1.8892 H   0  0  0  0  0
  -78.2493   63.4323    1.5644 H   0  0  0  0  0
  -77.9457   65.7432   -0.0171 H   0  0  0  0  0
  1  2  1  0  0  0
  1  3  1  0  0  0
  1  5  1  0  0  0
  1  6  1  0  0  0
  2  7  1  0  0  0
  3  4  1  0  0  0
  3  8  1  0  0  0
  3  9  1  0  0  0
  4 10  1  0  0  0
M  END
$$$$
