@<TRIPOS>MOLECULE
EDO_2_B_410
 10 9 0 0 0
SMALL
NO_CHARGES

@<TRIPOS>ATOM
      1 C1        -98.6520   70.5440  -31.5460 C.3    410  EDO410      0.0000
      2 O1        -99.7050   70.5740  -30.5660 O.3    410  EDO410      0.0000
      3 C2        -98.3760   71.9320  -32.1160 C.3    410  EDO410      0.0000
      4 O2        -98.2910   72.9020  -31.0640 O.3    410  EDO410      0.0000
      5 H         -98.9227   69.8429  -32.3637 H      410  EDO410      0.0000
      6 H         -97.7297   70.1486  -31.0690 H      410  EDO410      0.0000
      7 H         -99.8326   69.6923  -30.2424 H      410  EDO410      0.0000
      8 H         -99.1908   72.2283  -32.8099 H      410  EDO410      0.0000
      9 H         -97.4323   71.9391  -32.6991 H      410  EDO410      0.0000
     10 H         -98.9816   72.6849  -30.4475 H      410  EDO410      0.0000
@<TRIPOS>BOND
     1     1     2    1
     2     1     3    1
     3     1     5    1
     4     1     6    1
     5     2     7    1
     6     3     4    1
     7     3     8    1
     8     3     9    1
     9     4    10    1

