EDO_1_B_404
  -ISIS-            3D

 10  9  0  0  0  0  0  0  0  0  1 V2000
  -46.7500   46.6840  -12.2340 C   0  0  0  0  0
  -45.9060   45.9300  -11.3530 O   0  0  0  0  0
  -47.6730   45.7930  -13.0580 C   0  0  0  0  0
  -46.8960   44.9940  -13.9610 O   0  0  0  0  0
  -46.1192   47.3091  -12.9007 H   0  0  0  0  0
  -47.3543   47.3844  -11.6205 H   0  0  0  0  0
  -45.4818   45.2716  -11.8902 H   0  0  0  0  0
  -48.3843   46.4171  -13.6395 H   0  0  0  0  0
  -48.2715   45.1349  -12.3933 H   0  0  0  0  0
  -47.4905   44.4567  -14.4674 H   0  0  0  0  0
  1  2  1  0  0  0
  1  3  1  0  0  0
  1  5  1  0  0  0
  1  6  1  0  0  0
  2  7  1  0  0  0
  3  4  1  0  0  0
  3  8  1  0  0  0
  3  9  1  0  0  0
  4 10  1  0  0  0
M  END
$$$$
