@<TRIPOS>MOLECULE
EDO_2_A_403
 10 9 0 0 0
SMALL
NO_CHARGES

@<TRIPOS>ATOM
      1 C1        -86.6920   68.0960   39.0470 C.3    403  EDO403      0.0000
      2 O1        -86.5190   68.7100   37.7690 O.3    403  EDO403      0.0000
      3 C2        -86.4870   66.5960   38.9140 C.3    403  EDO403      0.0000
      4 O2        -87.1310   65.9410   40.0060 O.3    403  EDO403      0.0000
      5 H         -87.7244   68.3122   39.3929 H      403  EDO403      0.0000
      6 H         -85.9975   68.5368   39.7925 H      403  EDO403      0.0000
      7 H         -85.5941   68.8705   37.6357 H      403  EDO403      0.0000
      8 H         -85.4060   66.3439   38.9001 H      403  EDO403      0.0000
      9 H         -86.9313   66.2301   37.9637 H      403  EDO403      0.0000
     10 H         -87.0606   65.0043   39.8760 H      403  EDO403      0.0000
@<TRIPOS>BOND
     1     1     2    1
     2     1     3    1
     3     1     5    1
     4     1     6    1
     5     2     7    1
     6     3     4    1
     7     3     8    1
     8     3     9    1
     9     4    10    1

