@<TRIPOS>MOLECULE
EDO_1_B_402
 10 9 0 0 0
SMALL
NO_CHARGES

@<TRIPOS>ATOM
      1 C1        -76.8330   63.6270   -0.0920 C.3    402  EDO402      0.0000
      2 O1        -76.2180   64.5960   -0.9660 O.3    402  EDO402      0.0000
      3 C2        -77.5920   64.2000    1.1070 C.3    402  EDO402      0.0000
      4 O2        -78.3860   65.3420    0.7240 O.3    402  EDO402      0.0000
      5 H         -76.0653   62.9043    0.2580 H      402  EDO402      0.0000
      6 H         -77.5443   63.0356   -0.7070 H      402  EDO402      0.0000
      7 H         -75.3751   64.8313   -0.6010 H      402  EDO402      0.0000
      8 H         -76.8721   64.5205    1.8892 H      402  EDO402      0.0000
      9 H         -78.2493   63.4323    1.5644 H      402  EDO402      0.0000
     10 H         -77.9457   65.7432   -0.0171 H      402  EDO402      0.0000
@<TRIPOS>BOND
     1     1     2    1
     2     1     3    1
     3     1     5    1
     4     1     6    1
     5     2     7    1
     6     3     4    1
     7     3     8    1
     8     3     9    1
     9     4    10    1

