@<TRIPOS>MOLECULE
EDO_2_A_408
 10 9 0 0 0
SMALL
NO_CHARGES

@<TRIPOS>ATOM
      1 C1       -115.3650   46.9920   44.6270 C.3    408  EDO408      0.0000
      2 O1       -114.5800   46.2130   45.5200 O.3    408  EDO408      0.0000
      3 C2       -116.2970   46.0440   43.8930 C.3    408  EDO408      0.0000
      4 O2       -115.5220   44.9520   43.4070 O.3    408  EDO408      0.0000
      5 H        -114.6990   47.5251   43.9164 H      408  EDO408      0.0000
      6 H        -115.9326   47.7563   45.1958 H      408  EDO408      0.0000
      7 H        -114.2571   45.4691   45.0241 H      408  EDO408      0.0000
      8 H        -116.8008   46.5622   43.0503 H      408  EDO408      0.0000
      9 H        -117.0845   45.6653   44.5788 H      408  EDO408      0.0000
     10 H        -116.1028   44.3542   42.9557 H      408  EDO408      0.0000
@<TRIPOS>BOND
     1     1     2    1
     2     1     3    1
     3     1     5    1
     4     1     6    1
     5     2     7    1
     6     3     4    1
     7     3     8    1
     8     3     9    1
     9     4    10    1

