@<TRIPOS>MOLECULE
EDO_1_A_401
 10 9 0 0 0
SMALL
NO_CHARGES

@<TRIPOS>ATOM
      1 C1        -65.7180   36.5450   15.7480 C.3    401  EDO401      0.0000
      2 O1        -65.8990   35.1650   15.4430 O.3    401  EDO401      0.0000
      3 C2        -66.0440   37.2570   14.4570 C.3    401  EDO401      0.0000
      4 O2        -67.4600   37.2850   14.2550 O.3    401  EDO401      0.0000
      5 H         -64.6646   36.7280   16.0473 H      401  EDO401      0.0000
      6 H         -66.3824   36.8595   16.5792 H      401  EDO401      0.0000
      7 H         -65.6895   34.6607   16.2178 H      401  EDO401      0.0000
      8 H         -65.5414   36.7870   13.5857 H      401  EDO401      0.0000
      9 H         -65.6832   38.3056   14.5061 H      401  EDO401      0.0000
     10 H         -67.7449   36.3792   14.2408 H      401  EDO401      0.0000
@<TRIPOS>BOND
     1     1     2    1
     2     1     3    1
     3     1     5    1
     4     1     6    1
     5     2     7    1
     6     3     4    1
     7     3     8    1
     8     3     9    1
     9     4    10    1

