@<TRIPOS>MOLECULE
EDO_1_B_412
 10 9 0 0 0
SMALL
NO_CHARGES

@<TRIPOS>ATOM
      1 C1        -38.1750   40.4590  -30.8820 C.3    412  EDO412      0.0000
      2 O1        -37.5180   40.1400  -29.6450 O.3    412  EDO412      0.0000
      3 C2        -38.1740   41.9680  -31.1180 C.3    412  EDO412      0.0000
      4 O2        -36.8280   42.4690  -31.0310 O.3    412  EDO412      0.0000
      5 H         -39.2138   40.0708  -30.8502 H      412  EDO412      0.0000
      6 H         -37.6563   39.9366  -31.7131 H      412  EDO412      0.0000
      7 H         -36.7736   40.7276  -29.5778 H      412  EDO412      0.0000
      8 H         -38.7914   42.4749  -30.3475 H      412  EDO412      0.0000
      9 H         -38.6159   42.2163  -32.1059 H      412  EDO412      0.0000
     10 H         -36.4480   42.4604  -31.8996 H      412  EDO412      0.0000
@<TRIPOS>BOND
     1     1     2    1
     2     1     3    1
     3     1     5    1
     4     1     6    1
     5     2     7    1
     6     3     4    1
     7     3     8    1
     8     3     9    1
     9     4    10    1

