@<TRIPOS>MOLECULE
EDO_2_A_407
 10 9 0 0 0
SMALL
NO_CHARGES

@<TRIPOS>ATOM
      1 C1        -97.6680   60.0650   12.8540 C.3    407  EDO407      0.0000
      2 O1        -98.1890   59.1880   13.8600 O.3    407  EDO407      0.0000
      3 C2        -98.4210   61.3900   12.8870 C.3    407  EDO407      0.0000
      4 O2        -99.2850   61.5130   11.7500 O.3    407  EDO407      0.0000
      5 H         -97.7575   59.5750   11.8630 H      407  EDO407      0.0000
      6 H         -96.5833   60.2271   13.0311 H      407  EDO407      0.0000
      7 H         -97.7523   59.3758   14.6805 H      407  EDO407      0.0000
      8 H         -97.6984   62.2322   12.8590 H      407  EDO407      0.0000
      9 H         -99.0069   61.5096   13.8222 H      407  EDO407      0.0000
     10 H         -99.9851   60.8813   11.8506 H      407  EDO407      0.0000
@<TRIPOS>BOND
     1     1     2    1
     2     1     3    1
     3     1     5    1
     4     1     6    1
     5     2     7    1
     6     3     4    1
     7     3     8    1
     8     3     9    1
     9     4    10    1

