EDO_2_A_413
  -ISIS-            3D

 10  9  0  0  0  0  0  0  0  0  1 V2000
  -93.8470   61.9760   34.8300 C   0  0  0  0  0
  -93.8050   61.7660   36.2610 O   0  0  0  0  0
  -95.2620   62.1300   34.2670 C   0  0  0  0  0
  -95.4720   63.4530   33.7600 O   0  0  0  0  0
  -93.3560   61.1038   34.3492 H   0  0  0  0  0
  -93.2225   62.8565   34.5698 H   0  0  0  0  0
  -94.0049   62.5941   36.6773 H   0  0  0  0  0
  -96.0182   61.9076   35.0488 H   0  0  0  0  0
  -95.4224   61.3998   33.4452 H   0  0  0  0  0
  -96.3490   63.4992   33.4028 H   0  0  0  0  0
  1  2  1  0  0  0
  1  3  1  0  0  0
  1  5  1  0  0  0
  1  6  1  0  0  0
  2  7  1  0  0  0
  3  4  1  0  0  0
  3  8  1  0  0  0
  3  9  1  0  0  0
  4 10  1  0  0  0
M  END
$$$$
