@<TRIPOS>MOLECULE
EDO_2_B_402
 10 9 0 0 0
SMALL
NO_CHARGES

@<TRIPOS>ATOM
      1 C1        -92.0780   32.2300   -0.0920 C.3    402  EDO402      0.0000
      2 O1        -93.2250   32.2780   -0.9660 O.3    402  EDO402      0.0000
      3 C2        -92.1950   31.2860    1.1070 C.3    402  EDO402      0.0000
      4 O2        -92.7870   30.0280    0.7240 O.3    402  EDO402      0.0000
      5 H         -91.8613   33.2597    0.2612 H      402  EDO402      0.0000
      6 H         -91.2017   31.9252   -0.7032 H      402  EDO402      0.0000
      7 H         -93.6500   31.4312   -0.8887 H      402  EDO402      0.0000
      8 H         -92.8469   31.7495    1.8769 H      402  EDO402      0.0000
      9 H         -91.2056   31.1195    1.5827 H      402  EDO402      0.0000
     10 H         -92.0933   29.4458    0.4432 H      402  EDO402      0.0000
@<TRIPOS>BOND
     1     1     2    1
     2     1     3    1
     3     1     5    1
     4     1     6    1
     5     2     7    1
     6     3     4    1
     7     3     8    1
     8     3     9    1
     9     4    10    1

