@<TRIPOS>MOLECULE
EDO_1_B_410
 10 9 0 0 0
SMALL
NO_CHARGES

@<TRIPOS>ATOM
      1 C1        -40.3650   50.1630  -31.5460 C.3    410  EDO410      0.0000
      2 O1        -39.8130   51.0600  -30.5660 O.3    410  EDO410      0.0000
      3 C2        -39.3010   49.2300  -32.1160 C.3    410  EDO410      0.0000
      4 O2        -38.5030   48.6710  -31.0640 O.3    410  EDO410      0.0000
      5 H         -40.8396   50.7555  -32.3550 H      410  EDO410      0.0000
      6 H         -41.1713   49.5684  -31.0666 H      410  EDO410      0.0000
      7 H         -39.2021   50.5431  -30.0526 H      410  EDO410      0.0000
      8 H         -38.6412   49.7941  -32.8093 H      410  EDO410      0.0000
      9 H         -39.7766   48.4155  -32.7020 H      410  EDO410      0.0000
     10 H         -37.8555   48.0999  -31.4551 H      410  EDO410      0.0000
@<TRIPOS>BOND
     1     1     2    1
     2     1     3    1
     3     1     5    1
     4     1     6    1
     5     2     7    1
     6     3     4    1
     7     3     8    1
     8     3     9    1
     9     4    10    1

