@<TRIPOS>MOLECULE
EDO_3_B_410
 10 9 0 0 0
SMALL
NO_CHARGES

@<TRIPOS>ATOM
      1 C1        -87.1590    9.8750  -31.5460 C.3    410  EDO410      0.0000
      2 O1        -86.6580    8.9490  -30.5660 O.3    410  EDO410      0.0000
      3 C2        -88.4990    9.4210  -32.1160 C.3    410  EDO410      0.0000
      4 O2        -89.3820    9.0090  -31.0640 O.3    410  EDO410      0.0000
      5 H         -86.4117    9.9755  -32.3601 H      410  EDO410      0.0000
      6 H         -87.2607   10.8786  -31.0804 H      410  EDO410      0.0000
      7 H         -87.1806    9.0633  -29.7822 H      410  EDO410      0.0000
      8 H         -88.3526    8.5795  -32.8264 H      410  EDO410      0.0000
      9 H         -88.9747   10.2456  -32.6860 H      410  EDO410      0.0000
     10 H         -89.1217    8.1347  -30.8023 H      410  EDO410      0.0000
@<TRIPOS>BOND
     1     1     2    1
     2     1     3    1
     3     1     5    1
     4     1     6    1
     5     2     7    1
     6     3     4    1
     7     3     8    1
     8     3     9    1
     9     4    10    1

