@<TRIPOS>MOLECULE
EDO_3_B_404
 10 9 0 0 0
SMALL
NO_CHARGES

@<TRIPOS>ATOM
      1 C1        -86.9800   17.1450  -12.2340 C.3    404  EDO404      0.0000
      2 O1        -88.0540   16.7910  -11.3530 O.3    404  EDO404      0.0000
      3 C2        -87.2890   18.3890  -13.0580 C.3    404  EDO404      0.0000
      4 O2        -88.3700   18.1160  -13.9610 O.3    404  EDO404      0.0000
      5 H         -86.7588   16.2898  -12.9077 H      404  EDO404      0.0000
      6 H         -86.0649   17.3230  -11.6293 H      404  EDO404      0.0000
      7 H         -87.7983   16.0170  -10.8692 H      404  EDO404      0.0000
      8 H         -86.4004   18.6937  -13.6487 H      404  EDO404      0.0000
      9 H         -87.5563   19.2427  -12.4006 H      404  EDO404      0.0000
     10 H         -89.0786   17.7659  -13.4343 H      404  EDO404      0.0000
@<TRIPOS>BOND
     1     1     2    1
     2     1     3    1
     3     1     5    1
     4     1     6    1
     5     2     7    1
     6     3     4    1
     7     3     8    1
     8     3     9    1
     9     4    10    1

