EDO_3_A_401
  -ISIS-            3D

 10  9  0  0  0  0  0  0  0  0  1 V2000
  -86.2770   38.6410   15.7480 C   0  0  0  0  0
  -87.3810   39.4880   15.4430 O   0  0  0  0  0
  -85.4970   38.5670   14.4570 C   0  0  0  0  0
  -84.7650   39.7790   14.2550 O   0  0  0  0  0
  -86.6573   37.6424   16.0458 H   0  0  0  0  0
  -85.6781   39.0512   16.5870 H   0  0  0  0  0
  -87.0203   40.3314   15.1961 H   0  0  0  0  0
  -86.1628   38.3712   13.5898 H   0  0  0  0  0
  -84.7775   37.7219   14.5094 H   0  0  0  0  0
  -84.2787   39.7001   13.4452 H   0  0  0  0  0
  1  2  1  0  0  0
  1  3  1  0  0  0
  1  5  1  0  0  0
  1  6  1  0  0  0
  2  7  1  0  0  0
  3  4  1  0  0  0
  3  8  1  0  0  0
  3  9  1  0  0  0
  4 10  1  0  0  0
M  END
$$$$
