@<TRIPOS>MOLECULE
EDO_2_B_401
 10 9 0 0 0
SMALL
NO_CHARGES

@<TRIPOS>ATOM
      1 C1        -87.4790   45.2770  -14.9390 C.3    401  EDO401      0.0000
      2 O1        -86.4430   46.1900  -14.5000 O.3    401  EDO401      0.0000
      3 C2        -86.9350   44.1640  -15.8530 C.3    401  EDO401      0.0000
      4 O2        -87.2830   42.8390  -15.3850 O.3    401  EDO401      0.0000
      5 H         -88.2505   45.8619  -15.4818 H      401  EDO401      0.0000
      6 H         -87.9879   44.8411  -14.0535 H      401  EDO401      0.0000
      7 H         -86.1237   45.8958  -13.6571 H      401  EDO401      0.0000
      8 H         -85.8315   44.2424  -15.9488 H      401  EDO401      0.0000
      9 H         -87.3436   44.2892  -16.8773 H      401  EDO401      0.0000
     10 H         -86.6188   42.5576  -14.7696 H      401  EDO401      0.0000
@<TRIPOS>BOND
     1     1     2    1
     2     1     3    1
     3     1     5    1
     4     1     6    1
     5     2     7    1
     6     3     4    1
     7     3     8    1
     8     3     9    1
     9     4    10    1

