@<TRIPOS>MOLECULE
EDO_1_B_403
 10 9 0 0 0
SMALL
NO_CHARGES

@<TRIPOS>ATOM
      1 C1        -48.5370   39.5750  -20.1640 C.3    403  EDO403      0.0000
      2 O1        -47.2430   39.5060  -19.5200 O.3    403  EDO403      0.0000
      3 C2        -48.4590   38.7290  -21.4360 C.3    403  EDO403      0.0000
      4 O2        -49.6730   38.7230  -22.1870 O.3    403  EDO403      0.0000
      5 H         -48.7806   40.6300  -20.4089 H      403  EDO403      0.0000
      6 H         -49.3207   39.1859  -19.4809 H      403  EDO403      0.0000
      7 H         -47.2820   40.0294  -18.7306 H      403  EDO403      0.0000
      8 H         -48.1973   37.6827  -21.1683 H      403  EDO403      0.0000
      9 H         -47.6399   39.1104  -22.0830 H      403  EDO403      0.0000
     10 H         -49.5442   38.1822  -22.9550 H      403  EDO403      0.0000
@<TRIPOS>BOND
     1     1     2    1
     2     1     3    1
     3     1     5    1
     4     1     6    1
     5     2     7    1
     6     3     4    1
     7     3     8    1
     8     3     9    1
     9     4    10    1

