@<TRIPOS>MOLECULE
EDO_3_A_411
 10 9 0 0 0
SMALL
NO_CHARGES

@<TRIPOS>ATOM
      1 C1        -70.2460    5.3950   42.5510 C.3    411  EDO411      0.0000
      2 O1        -71.6640    5.3250   42.3290 O.3    411  EDO411      0.0000
      3 C2        -69.8190    4.4170   43.6470 C.3    411  EDO411      0.0000
      4 O2        -68.3890    4.2990   43.6720 O.3    411  EDO411      0.0000
      5 H         -69.9609    6.4316   42.8292 H      411  EDO411      0.0000
      6 H         -69.7217    5.1493   41.6029 H      411  EDO411      0.0000
      7 H         -71.8840    5.9345   41.6370 H      411  EDO411      0.0000
      8 H         -70.2615    3.4164   43.4546 H      411  EDO411      0.0000
      9 H         -70.1865    4.7614   44.6366 H      411  EDO411      0.0000
     10 H         -68.1566    3.6773   44.3489 H      411  EDO411      0.0000
@<TRIPOS>BOND
     1     1     2    1
     2     1     3    1
     3     1     5    1
     4     1     6    1
     5     2     7    1
     6     3     4    1
     7     3     8    1
     8     3     9    1
     9     4    10    1

