@<TRIPOS>MOLECULE
EDO_2_A_411
 10 9 0 0 0
SMALL
NO_CHARGES

@<TRIPOS>ATOM
      1 C1       -110.9890   58.1370   42.5510 C.3    411  EDO411      0.0000
      2 O1       -110.3400   59.4000   42.3290 O.3    411  EDO411      0.0000
      3 C2       -112.0490   58.2560   43.6470 C.3    411  EDO411      0.0000
      4 O2       -112.8670   57.0770   43.6720 O.3    411  EDO411      0.0000
      5 H        -110.2347   57.3711   42.8300 H      411  EDO411      0.0000
      6 H        -111.4604   57.8074   41.6007 H      411  EDO411      0.0000
      7 H        -109.6498   59.2708   41.6917 H      411  EDO411      0.0000
      8 H        -112.6882   59.1486   43.4782 H      411  EDO411      0.0000
      9 H        -111.5659   58.3830   44.6377 H      411  EDO411      0.0000
     10 H        -113.5639   57.1828   43.0381 H      411  EDO411      0.0000
@<TRIPOS>BOND
     1     1     2    1
     2     1     3    1
     3     1     5    1
     4     1     6    1
     5     2     7    1
     6     3     4    1
     7     3     8    1
     8     3     9    1
     9     4    10    1

