@<TRIPOS>MOLECULE
EDO_3_B_413
 10 9 0 0 0
SMALL
NO_CHARGES

@<TRIPOS>ATOM
      1 C1        -72.1730    2.4990  -23.5140 C.3    413  EDO413      0.0000
      2 O1        -71.3270    1.3670  -23.2990 O.3    413  EDO413      0.0000
      3 C2        -72.7150    2.3590  -24.9270 C.3    413  EDO413      0.0000
      4 O2        -72.0510    3.2880  -25.7900 O.3    413  EDO413      0.0000
      5 H         -71.6079    3.4432  -23.3710 H      413  EDO413      0.0000
      6 H         -73.0019    2.4816  -22.7750 H      413  EDO413      0.0000
      7 H         -70.9877    1.4155  -22.4151 H      413  EDO413      0.0000
      8 H         -73.7984    2.6012  -24.9371 H      413  EDO413      0.0000
      9 H         -72.6186    1.3258  -25.3210 H      413  EDO413      0.0000
     10 H         -71.1753    2.9573  -25.9430 H      413  EDO413      0.0000
@<TRIPOS>BOND
     1     1     2    1
     2     1     3    1
     3     1     5    1
     4     1     6    1
     5     2     7    1
     6     3     4    1
     7     3     8    1
     8     3     9    1
     9     4    10    1

