EDO_2_A_407
  -ISIS-            3D

 10  9  0  0  0  0  0  0  0  0  1 V2000
  -97.6680   60.0650   12.8540 C   0  0  0  0  0
  -98.1890   59.1880   13.8600 O   0  0  0  0  0
  -98.4210   61.3900   12.8870 C   0  0  0  0  0
  -99.2850   61.5130   11.7500 O   0  0  0  0  0
  -97.7575   59.5750   11.8630 H   0  0  0  0  0
  -96.5833   60.2271   13.0311 H   0  0  0  0  0
  -97.7523   59.3758   14.6805 H   0  0  0  0  0
  -97.6984   62.2322   12.8590 H   0  0  0  0  0
  -99.0069   61.5096   13.8222 H   0  0  0  0  0
  -99.9851   60.8813   11.8506 H   0  0  0  0  0
  1  2  1  0  0  0
  1  3  1  0  0  0
  1  5  1  0  0  0
  1  6  1  0  0  0
  2  7  1  0  0  0
  3  4  1  0  0  0
  3  8  1  0  0  0
  3  9  1  0  0  0
  4 10  1  0  0  0
M  END
$$$$
