EDO_2_B_412
  -ISIS-            3D

 10  9  0  0  0  0  0  0  0  0  1 V2000
  -91.3430   77.2930  -30.8820 C   0  0  0  0  0
  -91.3950   78.0210  -29.6450 O   0  0  0  0  0
  -92.6510   76.5390  -31.1180 C   0  0  0  0  0
  -93.7570   77.4540  -31.0310 O   0  0  0  0  0
  -90.4887   76.5842  -30.8585 H   0  0  0  0  0
  -91.1630   78.0009  -31.7191 H   0  0  0  0  0
  -90.6616   78.6216  -29.6215 H   0  0  0  0  0
  -92.7694   75.7396  -30.3559 H   0  0  0  0  0
  -92.6463   76.0533  -32.1162 H   0  0  0  0  0
  -94.5583   76.9488  -30.9873 H   0  0  0  0  0
  1  2  1  0  0  0
  1  3  1  0  0  0
  1  5  1  0  0  0
  1  6  1  0  0  0
  2  7  1  0  0  0
  3  4  1  0  0  0
  3  8  1  0  0  0
  3  9  1  0  0  0
  4 10  1  0  0  0
M  END
$$$$
