@<TRIPOS>MOLECULE
EDO_3_B_403
 10 9 0 0 0
SMALL
NO_CHARGES

@<TRIPOS>ATOM
      1 C1        -92.2430   22.2470  -20.1640 C.3    403  EDO403      0.0000
      2 O1        -92.9490   21.1600  -19.5200 O.3    403  EDO403      0.0000
      3 C2        -93.0140   22.6020  -21.4360 C.3    403  EDO403      0.0000
      4 O2        -92.4130   23.6570  -22.1870 O.3    403  EDO403      0.0000
      5 H         -91.2071   21.9315  -20.4084 H      403  EDO403      0.0000
      6 H         -92.1891   23.1202  -19.4807 H      403  EDO403      0.0000
      7 H         -92.4763   20.9327  -18.7304 H      403  EDO403      0.0000
      8 H         -94.0513   22.8976  -21.1687 H      403  EDO403      0.0000
      9 H         -93.0924   21.7020  -22.0831 H      403  EDO403      0.0000
     10 H         -92.9457   23.8153  -22.9552 H      403  EDO403      0.0000
@<TRIPOS>BOND
     1     1     2    1
     2     1     3    1
     3     1     5    1
     4     1     6    1
     5     2     7    1
     6     3     4    1
     7     3     8    1
     8     3     9    1
     9     4    10    1

