EDO_3_B_404
  -ISIS-            3D

 10  9  0  0  0  0  0  0  0  0  1 V2000
  -86.9800   17.1450  -12.2340 C   0  0  0  0  0
  -88.0540   16.7910  -11.3530 O   0  0  0  0  0
  -87.2890   18.3890  -13.0580 C   0  0  0  0  0
  -88.3700   18.1160  -13.9610 O   0  0  0  0  0
  -86.7588   16.2898  -12.9077 H   0  0  0  0  0
  -86.0649   17.3230  -11.6293 H   0  0  0  0  0
  -87.7983   16.0170  -10.8692 H   0  0  0  0  0
  -86.4004   18.6937  -13.6487 H   0  0  0  0  0
  -87.5563   19.2427  -12.4006 H   0  0  0  0  0
  -89.0786   17.7659  -13.4343 H   0  0  0  0  0
  1  2  1  0  0  0
  1  3  1  0  0  0
  1  5  1  0  0  0
  1  6  1  0  0  0
  2  7  1  0  0  0
  3  4  1  0  0  0
  3  8  1  0  0  0
  3  9  1  0  0  0
  4 10  1  0  0  0
M  END
$$$$
