@<TRIPOS>MOLECULE
EDO_3_A_413
 10 9 0 0 0
SMALL
NO_CHARGES

@<TRIPOS>ATOM
      1 C1        -82.1420   18.3210   34.8300 C.3    413  EDO413      0.0000
      2 O1        -81.9810   18.4630   36.2610 O.3    413  EDO413      0.0000
      3 C2        -81.5670   17.0190   34.2670 C.3    413  EDO413      0.0000
      4 O2        -82.6080   16.1750   33.7600 O.3    413  EDO413      0.0000
      5 H         -81.6462   19.1843   34.3367 H      413  EDO413      0.0000
      6 H         -83.2210   18.3980   34.5778 H      413  EDO413      0.0000
      7 H         -82.4664   19.2290   36.5376 H      413  EDO413      0.0000
      8 H         -80.9992   16.4789   35.0535 H      413  EDO413      0.0000
      9 H         -80.8526   17.2416   33.4462 H      413  EDO413      0.0000
     10 H         -82.2244   15.3410   33.5232 H      413  EDO413      0.0000
@<TRIPOS>BOND
     1     1     2    1
     2     1     3    1
     3     1     5    1
     4     1     6    1
     5     2     7    1
     6     3     4    1
     7     3     8    1
     8     3     9    1
     9     4    10    1

