EDO_3_B_406
  -ISIS-            3D

 10  9  0  0  0  0  0  0  0  0  1 V2000
  -77.5010    7.0680  -32.0200 C   0  0  0  0  0
  -78.5320    7.4610  -31.1070 O   0  0  0  0  0
  -76.3200    6.5340  -31.2210 C   0  0  0  0  0
  -75.7110    7.6170  -30.5150 O   0  0  0  0  0
  -77.1981    7.9308  -32.6498 H   0  0  0  0  0
  -77.8912    6.2781  -32.6964 H   0  0  0  0  0
  -79.2658    7.7859  -31.6115 H   0  0  0  0  0
  -75.5664    6.0845  -31.9002 H   0  0  0  0  0
  -76.6364    5.7437  -30.5086 H   0  0  0  0  0
  -76.4003    8.0248  -30.0042 H   0  0  0  0  0
  1  2  1  0  0  0
  1  3  1  0  0  0
  1  5  1  0  0  0
  1  6  1  0  0  0
  2  7  1  0  0  0
  3  4  1  0  0  0
  3  8  1  0  0  0
  3  9  1  0  0  0
  4 10  1  0  0  0
M  END
$$$$
