EDO_1_A_404
  -ISIS-            3D

 10  9  0  0  0  0  0  0  0  0  1 V2000
  -53.5720   83.5960   36.0650 C   0  0  0  0  0
  -53.8290   83.1340   37.4040 O   0  0  0  0  0
  -54.6880   84.4270   35.4370 C   0  0  0  0  0
  -55.0670   85.4980   36.3270 O   0  0  0  0  0
  -53.3413   82.7253   35.4146 H   0  0  0  0  0
  -52.6447   84.2066   36.0937 H   0  0  0  0  0
  -54.3594   82.3498   37.3519 H   0  0  0  0  0
  -55.5767   83.7919   35.2392 H   0  0  0  0  0
  -54.3653   84.8558   34.4661 H   0  0  0  0  0
  -54.9975   85.1554   37.2110 H   0  0  0  0  0
  1  2  1  0  0  0
  1  3  1  0  0  0
  1  5  1  0  0  0
  1  6  1  0  0  0
  2  7  1  0  0  0
  3  4  1  0  0  0
  3  8  1  0  0  0
  3  9  1  0  0  0
  4 10  1  0  0  0
M  END
$$$$
