@<TRIPOS>MOLECULE
EDO_2_B_406
 10 9 0 0 0
SMALL
NO_CHARGES

@<TRIPOS>ATOM
      1 C1       -105.9120   63.5840  -32.0200 C.3    406  EDO406      0.0000
      2 O1       -105.0560   64.2800  -31.1070 O.3    406  EDO406      0.0000
      3 C2       -106.9650   62.8280  -31.2210 C.3    406  EDO406      0.0000
      4 O2       -106.3320   61.7590  -30.5150 O.3    406  EDO406      0.0000
      5 H        -105.3139   62.9008  -32.6582 H      406  EDO406      0.0000
      6 H        -106.3943   64.3255  -32.6900 H      406  EDO406      0.0000
      7 H        -104.7878   63.6483  -30.4500 H      406  EDO406      0.0000
      8 H        -107.7519   62.4235  -31.8925 H      406  EDO406      0.0000
      9 H        -107.4695   63.4996  -30.4960 H      406  EDO406      0.0000
     10 H        -106.2938   61.0010  -31.0834 H      406  EDO406      0.0000
@<TRIPOS>BOND
     1     1     2    1
     2     1     3    1
     3     1     5    1
     4     1     6    1
     5     2     7    1
     6     3     4    1
     7     3     8    1
     8     3     9    1
     9     4    10    1

