@<TRIPOS>MOLECULE
EDO_3_B_407
 10 9 0 0 0
SMALL
NO_CHARGES

@<TRIPOS>ATOM
      1 C1        -83.5770   17.9600  -33.8910 C.3    407  EDO407      0.0000
      2 O1        -83.2050   16.6140  -33.5600 O.3    407  EDO407      0.0000
      3 C2        -82.4000   18.7080  -34.5300 C.3    407  EDO407      0.0000
      4 O2        -82.5880   18.9640  -35.9360 O.3    407  EDO407      0.0000
      5 H         -83.9189   18.4840  -32.9730 H      407  EDO407      0.0000
      6 H         -84.4452   17.9335  -34.5808 H      407  EDO407      0.0000
      7 H         -82.7679   16.6202  -32.7186 H      407  EDO407      0.0000
      8 H         -81.4470   18.1591  -34.3782 H      407  EDO407      0.0000
      9 H         -82.2727   19.6883  -34.0245 H      407  EDO407      0.0000
     10 H         -82.5664   18.1289  -36.3850 H      407  EDO407      0.0000
@<TRIPOS>BOND
     1     1     2    1
     2     1     3    1
     3     1     5    1
     4     1     6    1
     5     2     7    1
     6     3     4    1
     7     3     8    1
     8     3     9    1
     9     4    10    1

