TTT_1_A_401
  -ISIS-            3D

 43 45  0  0  0  0  0  0  0  0  1 V2000
   10.5320  -10.6390   32.8280 C   0  0  0  0  0
   10.2020   -9.1230   32.9760 C   0  0  0  0  0
    9.8050  -14.7320   32.7820 C   0  0  0  0  0
    7.5370  -14.1800   31.1440 C   0  0  0  0  0
   11.2310   -8.1350   33.0420 C   0  0  0  0  0
    8.6290  -15.4560   32.9610 C   0  0  0  0  0
    7.4640  -15.1900   32.1390 C   0  0  0  0  0
    8.8340   -8.7140   33.0520 C   0  0  0  0  0
   10.9480  -15.0350   33.6310 C   0  0  0  0  0
   12.7220   -8.4830   32.9660 C   0  0  0  0  0
    8.4540   -7.3430   33.1890 C   0  0  0  0  0
   10.8560  -16.0520   34.6220 C   0  0  0  0  0
    9.4720   -6.3630   33.2550 C   0  0  0  0  0
    9.6490  -16.7820   34.7920 C   0  0  0  0  0
   10.5170  -11.3670   33.8410 O   0  0  0  0  0
   10.8430   -6.7640   33.1830 C   0  0  0  0  0
    7.0560   -6.9640   33.2650 N   0  0  0  0  0
   10.8750  -11.3270   31.5940 N   0  0  0  0  0
   11.1850  -12.7920   31.4600 C   0  0  0  0  0
   11.7590  -13.1070   30.0350 C   0  0  0  0  0
    9.9060  -13.6680   31.7400 C   0  0  0  0  0
    8.5260  -16.4960   33.9700 C   0  0  0  0  0
    8.7440  -13.4350   30.9560 C   0  0  0  0  0
    6.6573  -13.9670   30.5133 H   0  0  0  0  0
    6.5313  -15.7608   32.2803 H   0  0  0  0  0
    8.0490   -9.4867   33.0047 H   0  0  0  0  0
   11.8989  -14.4912   33.5319 H   0  0  0  0  0
   13.3674   -7.5807   33.0402 H   0  0  0  0  0
   12.9627   -8.9870   32.0040 H   0  0  0  0  0
   13.0109   -9.1690   33.7927 H   0  0  0  0  0
   11.7262  -16.2743   35.2626 H   0  0  0  0  0
    9.2152   -5.2966   33.3628 H   0  0  0  0  0
    9.5835  -17.5691   35.5620 H   0  0  0  0  0
   11.6213   -5.9841   33.2382 H   0  0  0  0  0
    6.8603   -5.9592   33.3585 H   0  0  0  0  0
    6.3750   -7.7327   33.2209 H   0  0  0  0  0
   10.8970  -10.7449   30.7458 H   0  0  0  0  0
   11.9799  -13.0517   32.1925 H   0  0  0  0  0
   12.0036  -14.1879   29.9311 H   0  0  0  0  0
   12.6941  -12.5346   29.8426 H   0  0  0  0  0
   11.0371  -12.8476   29.2294 H   0  0  0  0  0
    7.5885  -17.0613   34.1020 H   0  0  0  0  0
    8.7599  -12.6543   30.1769 H   0  0  0  0  0
  1  2  1  0  0  0
  1 15  2  0  0  0
  1 18  1  0  0  0
  2  5  2  0  0  0
  2  8  1  0  0  0
  3  6  2  0  0  0
  3  9  1  0  0  0
  3 21  1  0  0  0
  4  7  2  0  0  0
  4 23  1  0  0  0
  4 24  1  0  0  0
  5 10  1  0  0  0
  5 16  1  0  0  0
  6  7  1  0  0  0
  6 22  1  0  0  0
  7 25  1  0  0  0
  8 11  2  0  0  0
  8 26  1  0  0  0
  9 12  1  0  0  0
  9 27  1  0  0  0
 10 28  1  0  0  0
 10 29  1  0  0  0
 10 30  1  0  0  0
 11 13  1  0  0  0
 11 17  1  0  0  0
 12 14  2  0  0  0
 12 31  1  0  0  0
 13 16  2  0  0  0
 13 32  1  0  0  0
 14 22  1  0  0  0
 14 33  1  0  0  0
 16 34  1  0  0  0
 17 35  1  0  0  0
 17 36  1  0  0  0
 18 19  1  0  0  0
 18 37  1  0  0  0
 19 20  1  0  0  0
 19 21  1  0  0  0
 19 38  1  0  0  0
 20 39  1  0  0  0
 20 40  1  0  0  0
 20 41  1  0  0  0
 21 23  2  0  0  0
 22 42  1  0  0  0
 23 43  1  0  0  0
M  END
$$$$
