@<TRIPOS>MOLECULE
TTT_1_A_401
 43 45 0 0 0
SMALL
NO_CHARGES

@<TRIPOS>ATOM
      1 C1         10.5320  -10.6390   32.8280 C.2    401  TTT401      0.0000
      2 C3         10.2020   -9.1230   32.9760 C.ar   401  TTT401      0.0000
      3 C8          9.8050  -14.7320   32.7820 C.ar   401  TTT401      0.0000
      4 C9          7.5370  -14.1800   31.1440 C.ar   401  TTT401      0.0000
      5 C10        11.2310   -8.1350   33.0420 C.ar   401  TTT401      0.0000
      6 C11         8.6290  -15.4560   32.9610 C.ar   401  TTT401      0.0000
      7 C12         7.4640  -15.1900   32.1390 C.ar   401  TTT401      0.0000
      8 C13         8.8340   -8.7140   33.0520 C.ar   401  TTT401      0.0000
      9 C14        10.9480  -15.0350   33.6310 C.ar   401  TTT401      0.0000
     10 C16        12.7220   -8.4830   32.9660 C.3    401  TTT401      0.0000
     11 C19         8.4540   -7.3430   33.1890 C.ar   401  TTT401      0.0000
     12 C20        10.8560  -16.0520   34.6220 C.ar   401  TTT401      0.0000
     13 C21         9.4720   -6.3630   33.2550 C.ar   401  TTT401      0.0000
     14 C22         9.6490  -16.7820   34.7920 C.ar   401  TTT401      0.0000
     15 O7         10.5170  -11.3670   33.8410 O.2    401  TTT401      0.0000
     16 C17        10.8430   -6.7640   33.1830 C.ar   401  TTT401      0.0000
     17 N01         7.0560   -6.9640   33.2650 N.3    401  TTT401      0.0000
     18 N2         10.8750  -11.3270   31.5940 N.am   401  TTT401      0.0000
     19 C6         11.1850  -12.7920   31.4600 C.3    401  TTT401      0.0000
     20 C01        11.7590  -13.1070   30.0350 C.3    401  TTT401      0.0000
     21 C5          9.9060  -13.6680   31.7400 C.ar   401  TTT401      0.0000
     22 C18         8.5260  -16.4960   33.9700 C.ar   401  TTT401      0.0000
     23 C4          8.7440  -13.4350   30.9560 C.ar   401  TTT401      0.0000
     24 H           6.6573  -13.9670   30.5133 H      401  TTT401      0.0000
     25 H           6.5313  -15.7608   32.2803 H      401  TTT401      0.0000
     26 H           8.0490   -9.4867   33.0047 H      401  TTT401      0.0000
     27 H          11.8989  -14.4912   33.5319 H      401  TTT401      0.0000
     28 H          13.3674   -7.5807   33.0402 H      401  TTT401      0.0000
     29 H          12.9627   -8.9870   32.0040 H      401  TTT401      0.0000
     30 H          13.0109   -9.1690   33.7927 H      401  TTT401      0.0000
     31 H          11.7262  -16.2743   35.2626 H      401  TTT401      0.0000
     32 H           9.2152   -5.2966   33.3628 H      401  TTT401      0.0000
     33 H           9.5835  -17.5691   35.5620 H      401  TTT401      0.0000
     34 H          11.6213   -5.9841   33.2382 H      401  TTT401      0.0000
     35 H           6.8603   -5.9592   33.3585 H      401  TTT401      0.0000
     36 H           6.3750   -7.7327   33.2209 H      401  TTT401      0.0000
     37 H          10.8970  -10.7449   30.7458 H      401  TTT401      0.0000
     38 H          11.9799  -13.0517   32.1925 H      401  TTT401      0.0000
     39 H          12.0036  -14.1879   29.9311 H      401  TTT401      0.0000
     40 H          12.6941  -12.5346   29.8426 H      401  TTT401      0.0000
     41 H          11.0371  -12.8476   29.2294 H      401  TTT401      0.0000
     42 H           7.5885  -17.0613   34.1020 H      401  TTT401      0.0000
     43 H           8.7599  -12.6543   30.1769 H      401  TTT401      0.0000
@<TRIPOS>BOND
     1     1     2    1
     2     1    15    2
     3     1    18    1
     4     2     5   ar
     5     2     8   ar
     6     3     6   ar
     7     3     9   ar
     8     3    21   ar
     9     4     7   ar
    10     4    23   ar
    11     4    24    1
    12     5    10    1
    13     5    16   ar
    14     6     7   ar
    15     6    22   ar
    16     7    25    1
    17     8    11   ar
    18     8    26    1
    19     9    12   ar
    20     9    27    1
    21    10    28    1
    22    10    29    1
    23    10    30    1
    24    11    13   ar
    25    11    17    1
    26    12    14   ar
    27    12    31    1
    28    13    16   ar
    29    13    32    1
    30    14    22   ar
    31    14    33    1
    32    16    34    1
    33    17    35    1
    34    17    36    1
    35    18    19    1
    36    18    37    1
    37    19    20    1
    38    19    21    1
    39    19    38    1
    40    20    39    1
    41    20    40    1
    42    20    41    1
    43    21    23   ar
    44    22    42    1
    45    23    43    1

