DMS_1_A_401
  -ISIS-            3D

 10  9  0  0  0  0  0  0  0  0  1 V2000
    7.1000  -28.1090   21.4250 S   0  0  0  0  0
    8.0500  -27.2970   22.2230 O   0  0  0  0  0
    5.7630  -28.5470   22.5200 C   0  0  0  0  0
    6.1940  -27.0040   20.4010 C   0  0  0  0  0
    4.9567  -29.0499   21.9479 H   0  0  0  0  0
    5.3565  -27.6417   23.0159 H   0  0  0  0  0
    6.1397  -29.2448   23.2956 H   0  0  0  0  0
    5.3781  -27.5493   19.8841 H   0  0  0  0  0
    6.8723  -26.5718   19.6371 H   0  0  0  0  0
    5.7620  -26.1795   21.0045 H   0  0  0  0  0
  1  2  2  0  0  0
  1  3  1  0  0  0
  1  4  1  0  0  0
  3  5  1  0  0  0
  3  6  1  0  0  0
  3  7  1  0  0  0
  4  8  1  0  0  0
  4  9  1  0  0  0
  4 10  1  0  0  0
M  END
$$$$
