DMS_2_A_403
  -ISIS-            3D

 10  9  0  0  0  0  0  0  0  0  1 V2000
   -2.1900  -18.9870   -8.1140 S   0  0  0  0  0
   -3.3940  -18.7910   -9.0110 O   0  0  0  0  0
   -0.8040  -18.2780   -8.9610 C   0  0  0  0  0
   -1.7180  -20.6860   -8.3100 C   0  0  0  0  0
    0.1339  -18.5245   -8.4225 H   0  0  0  0  0
   -0.9189  -17.1751   -8.9910 H   0  0  0  0  0
   -0.7463  -18.6619  -10.0000 H   0  0  0  0  0
   -0.7548  -20.8722   -7.7922 H   0  0  0  0  0
   -1.6152  -20.9388   -9.3852 H   0  0  0  0  0
   -2.4961  -21.3360   -7.8604 H   0  0  0  0  0
  1  2  2  0  0  0
  1  3  1  0  0  0
  1  4  1  0  0  0
  3  5  1  0  0  0
  3  6  1  0  0  0
  3  7  1  0  0  0
  4  8  1  0  0  0
  4  9  1  0  0  0
  4 10  1  0  0  0
M  END
$$$$
