SAM_1_A_301
  -ISIS-            3D

 50 52  0  0  0  0  0  0  0  0  1 V2000
   59.4880  -64.6820    1.6590 N   0  3  0  0  0
   59.7720  -66.0450    1.2250 C   0  0  0  0  0
   61.0040  -66.5980    1.8900 C   0  0  0  0  0
   61.3590  -66.1450    2.9510 O   0  0  0  0  0
   61.6360  -67.5120    1.3920 O   0  0  0  0  0
   59.8800  -66.1870   -0.2820 C   0  0  0  0  0
   58.6840  -65.5750   -0.9740 C   0  0  0  0  0
   58.6480  -65.8660   -2.7470 S   0  0  0  0  0
   59.7740  -64.6070   -3.3690 C   0  0  0  0  0
   57.0770  -65.0620   -3.1590 C   0  0  0  0  0
   55.8170  -65.6350   -2.5240 C   0  0  0  0  0
   54.7590  -64.7390   -2.7560 O   0  0  0  0  0
   55.3580  -66.9900   -3.0670 C   0  0  0  0  0
   55.4390  -67.9730   -2.0720 O   0  0  0  0  0
   53.9170  -66.7670   -3.4920 C   0  0  0  0  0
   53.0280  -67.8010   -3.1550 O   0  0  0  0  0
   53.5660  -65.4800   -2.7740 C   0  0  0  0  0
   52.4650  -64.8030   -3.4600 N   0  0  0  0  0
   52.4480  -64.3210   -4.7290 C   0  0  0  0  0
   51.2330  -63.7890   -4.9500 N   0  0  0  0  0
   50.4680  -63.9340   -3.8560 C   0  0  0  0  0
   49.1560  -63.5760   -3.5460 C   0  0  0  0  0
   48.3640  -62.9650   -4.4190 N   0  0  0  0  0
   48.6700  -63.8670   -2.2970 N   0  0  0  0  0
   49.4650  -64.5050   -1.3830 C   0  0  0  0  0
   50.7510  -64.8600   -1.6960 N   0  0  0  0  0
   51.2430  -64.5730   -2.9110 C   0  0  0  0  0
   60.1950  -64.0379    1.3148 H   0  0  0  0  0
   59.4687  -64.6179    2.6728 H   0  0  0  0  0
   58.9243  -66.6911    1.5651 H   0  0  0  0  0
   59.9552  -67.2652   -0.5554 H   0  0  0  0  0
   60.8124  -65.6948   -0.6430 H   0  0  0  0  0
   58.6315  -64.4763   -0.8108 H   0  0  0  0  0
   57.7640  -66.0217   -0.5379 H   0  0  0  0  0
   59.7137  -64.5516   -4.4776 H   0  0  0  0  0
   60.8215  -64.8656   -3.1023 H   0  0  0  0  0
   59.5595  -63.5955   -2.9627 H   0  0  0  0  0
   56.9762  -65.0641   -4.2669 H   0  0  0  0  0
   57.1699  -63.9936   -2.8601 H   0  0  0  0  0
   55.9492  -65.7081   -1.4242 H   0  0  0  0  0
   55.9585  -67.2919   -3.9520 H   0  0  0  0  0
   56.2777  -68.4102   -2.1401 H   0  0  0  0  0
   53.9000  -66.6058   -4.5919 H   0  0  0  0  0
   52.1459  -67.4963   -3.3332 H   0  0  0  0  0
   53.2516  -65.6932   -1.7295 H   0  0  0  0  0
   53.2213  -64.3057   -5.5064 H   0  0  0  0  0
   49.0652  -64.7376   -0.3836 H   0  0  0  0  0
   47.4181  -62.7520   -4.0786 H   0  0  0  0  0
   48.7498  -62.7558   -5.3487 H   0  0  0  0  0
   58.5796  -64.3676    1.3330 H   0  0  0  0  0
  1  2  1  0  0  0
  1 28  1  0  0  0
  1 29  1  0  0  0
  2  3  1  0  0  0
  2  6  1  0  0  0
  2 30  1  0  0  0
  3  4  2  0  0  0
  3  5  2  0  0  0
  6  7  1  0  0  0
  6 31  1  0  0  0
  6 32  1  0  0  0
  7  8  1  0  0  0
  7 33  1  0  0  0
  7 34  1  0  0  0
  8  9  1  0  0  0
  8 10  1  0  0  0
  9 35  1  0  0  0
  9 36  1  0  0  0
  9 37  1  0  0  0
 10 11  1  0  0  0
 10 38  1  0  0  0
 10 39  1  0  0  0
 11 12  1  0  0  0
 11 13  1  0  0  0
 11 40  1  0  0  0
 12 17  1  0  0  0
 13 14  1  0  0  0
 13 15  1  0  0  0
 13 41  1  0  0  0
 14 42  1  0  0  0
 15 16  1  0  0  0
 15 17  1  0  0  0
 15 43  1  0  0  0
 16 44  1  0  0  0
 17 18  1  0  0  0
 17 45  1  0  0  0
 18 19  1  0  0  0
 18 27  1  0  0  0
 19 20  2  0  0  0
 19 46  1  0  0  0
 20 21  1  0  0  0
 21 22  2  0  0  0
 21 27  1  0  0  0
 22 23  1  0  0  0
 22 24  1  0  0  0
 23 48  1  0  0  0
 23 49  1  0  0  0
 24 25  1  0  0  0
 25 26  1  0  0  0
 25 47  1  0  0  0
 26 27  2  0  0  0
  1 50  1  0  0  0
M  END
$$$$
