@<TRIPOS>MOLECULE
DMS_2_A_1004
 10 9 0 0 0
SMALL
NO_CHARGES

@<TRIPOS>ATOM
      1 S          -2.5250  -18.7730   -8.0170 S.o   1004  DMS1004      0.0000
      2 O          -3.7350  -18.7840   -8.9050 O.2   1004  DMS1004      0.0000
      3 C1         -1.3030  -17.9070   -8.9550 C.3   1004  DMS1004      0.0000
      4 C2         -1.8090  -20.3600   -8.3520 C.3   1004  DMS1004      0.0000
      5 H          -0.3031  -18.0392   -8.4931 H     1004  DMS1004      0.0000
      6 H          -1.5476  -16.8250   -8.9584 H     1004  DMS1004      0.0000
      7 H          -1.2775  -18.2672  -10.0040 H     1004  DMS1004      0.0000
      8 H          -0.7917  -20.4189   -7.9135 H     1004  DMS1004      0.0000
      9 H          -1.7532  -20.5493   -9.4438 H     1004  DMS1004      0.0000
     10 H          -2.4372  -21.1475   -7.8872 H     1004  DMS1004      0.0000
@<TRIPOS>BOND
     1     1     2    2
     2     1     3    1
     3     1     4    1
     4     3     5    1
     5     3     6    1
     6     3     7    1
     7     4     8    1
     8     4     9    1
     9     4    10    1

