@<TRIPOS>MOLECULE
SAM_1_A_301
 50 52 0 0 0
SMALL
NO_CHARGES

@<TRIPOS>ATOM
      1 N          59.4880  -64.6820    1.6590 N.3    301  SAM301      1.0000
      2 CA         59.7720  -66.0450    1.2250 C.3    301  SAM301      0.0000
      3 C          61.0040  -66.5980    1.8900 C.2    301  SAM301      0.0000
      4 O          61.3590  -66.1450    2.9510 O.co2  301  SAM301     -0.5000
      5 OXT        61.6360  -67.5120    1.3920 O.co2  301  SAM301     -0.5000
      6 CB         59.8800  -66.1870   -0.2820 C.3    301  SAM301      0.0000
      7 CG         58.6840  -65.5750   -0.9740 C.3    301  SAM301      0.0000
      8 SD         58.6480  -65.8660   -2.7470 S.3    301  SAM301      0.0000
      9 CE         59.7740  -64.6070   -3.3690 C.3    301  SAM301      0.0000
     10 C5'        57.0770  -65.0620   -3.1590 C.3    301  SAM301      0.0000
     11 C4'        55.8170  -65.6350   -2.5240 C.3    301  SAM301      0.0000
     12 O4'        54.7590  -64.7390   -2.7560 O.3    301  SAM301      0.0000
     13 C3'        55.3580  -66.9900   -3.0670 C.3    301  SAM301      0.0000
     14 O3'        55.4390  -67.9730   -2.0720 O.3    301  SAM301      0.0000
     15 C2'        53.9170  -66.7670   -3.4920 C.3    301  SAM301      0.0000
     16 O2'        53.0280  -67.8010   -3.1550 O.3    301  SAM301      0.0000
     17 C1'        53.5660  -65.4800   -2.7740 C.3    301  SAM301      0.0000
     18 N9         52.4650  -64.8030   -3.4600 N.ar   301  SAM301      0.0000
     19 C8         52.4480  -64.3210   -4.7290 C.ar   301  SAM301      0.0000
     20 N7         51.2330  -63.7890   -4.9500 N.ar   301  SAM301      0.0000
     21 C5         50.4680  -63.9340   -3.8560 C.ar   301  SAM301      0.0000
     22 C6         49.1560  -63.5760   -3.5460 C.ar   301  SAM301      0.0000
     23 N6         48.3640  -62.9650   -4.4190 N.pl3  301  SAM301      0.0000
     24 N1         48.6700  -63.8670   -2.2970 N.ar   301  SAM301      0.0000
     25 C2         49.4650  -64.5050   -1.3830 C.ar   301  SAM301      0.0000
     26 N3         50.7510  -64.8600   -1.6960 N.ar   301  SAM301      0.0000
     27 C4         51.2430  -64.5730   -2.9110 C.ar   301  SAM301      0.0000
     28 H          60.1950  -64.0379    1.3148 H      301  SAM301      0.0000
     29 H          59.4687  -64.6179    2.6728 H      301  SAM301      0.0000
     30 H          58.9243  -66.6911    1.5651 H      301  SAM301      0.0000
     31 H          59.9552  -67.2652   -0.5554 H      301  SAM301      0.0000
     32 H          60.8124  -65.6948   -0.6430 H      301  SAM301      0.0000
     33 H          58.6315  -64.4763   -0.8108 H      301  SAM301      0.0000
     34 H          57.7640  -66.0217   -0.5379 H      301  SAM301      0.0000
     35 H          59.7137  -64.5516   -4.4776 H      301  SAM301      0.0000
     36 H          60.8215  -64.8656   -3.1023 H      301  SAM301      0.0000
     37 H          59.5595  -63.5955   -2.9627 H      301  SAM301      0.0000
     38 H          56.9762  -65.0641   -4.2669 H      301  SAM301      0.0000
     39 H          57.1699  -63.9936   -2.8601 H      301  SAM301      0.0000
     40 H          55.9492  -65.7081   -1.4242 H      301  SAM301      0.0000
     41 H          55.9585  -67.2919   -3.9520 H      301  SAM301      0.0000
     42 H          56.2777  -68.4102   -2.1401 H      301  SAM301      0.0000
     43 H          53.9000  -66.6058   -4.5919 H      301  SAM301      0.0000
     44 H          52.1459  -67.4963   -3.3332 H      301  SAM301      0.0000
     45 H          53.2516  -65.6932   -1.7295 H      301  SAM301      0.0000
     46 H          53.2213  -64.3057   -5.5064 H      301  SAM301      0.0000
     47 H          49.0652  -64.7376   -0.3836 H      301  SAM301      0.0000
     48 H          47.4181  -62.7520   -4.0786 H      301  SAM301      0.0000
     49 H          48.7498  -62.7558   -5.3487 H      301  SAM301      0.0000
     50 H          58.5796  -64.3676    1.3330 H      301  SAM301      0.0000
@<TRIPOS>BOND
     1     1     2    1
     2     1    28    1
     3     1    29    1
     4     2     3    1
     5     2     6    1
     6     2    30    1
     7     3     4   ar
     8     3     5   ar
     9     6     7    1
    10     6    31    1
    11     6    32    1
    12     7     8    1
    13     7    33    1
    14     7    34    1
    15     8     9    1
    16     8    10    1
    17     9    35    1
    18     9    36    1
    19     9    37    1
    20    10    11    1
    21    10    38    1
    22    10    39    1
    23    11    12    1
    24    11    13    1
    25    11    40    1
    26    12    17    1
    27    13    14    1
    28    13    15    1
    29    13    41    1
    30    14    42    1
    31    15    16    1
    32    15    17    1
    33    15    43    1
    34    16    44    1
    35    17    18    1
    36    17    45    1
    37    18    19   ar
    38    18    27   ar
    39    19    20   ar
    40    19    46    1
    41    20    21   ar
    42    21    22   ar
    43    21    27   ar
    44    22    23    1
    45    22    24   ar
    46    23    48    1
    47    23    49    1
    48    24    25   ar
    49    25    26   ar
    50    25    47    1
    51    26    27   ar
    52     1    50    1

