@<TRIPOS>MOLECULE
DMS_1_A_1005
 10 9 0 0 0
SMALL
NO_CHARGES

@<TRIPOS>ATOM
      1 S          21.0590   14.6200    7.9070 S.o   1005  DMS1005      0.0000
      2 O          22.5340   14.6830    8.0110 O.2   1005  DMS1005      0.0000
      3 C1         20.6100   13.3180    8.9980 C.3   1005  DMS1005      0.0000
      4 C2         20.7690   13.6920    6.4440 C.3   1005  DMS1005      0.0000
      5 H          19.5418   13.0541    8.8575 H     1005  DMS1005      0.0000
      6 H          20.7535   13.6535   10.0456 H     1005  DMS1005      0.0000
      7 H          21.2377   12.4199    8.8241 H     1005  DMS1005      0.0000
      8 H          19.6963   13.4190    6.3720 H     1005  DMS1005      0.0000
      9 H          21.3860   12.7701    6.4296 H     1005  DMS1005      0.0000
     10 H          21.0338   14.3096    5.5613 H     1005  DMS1005      0.0000
@<TRIPOS>BOND
     1     1     2    2
     2     1     3    1
     3     1     4    1
     4     3     5    1
     5     3     6    1
     6     3     7    1
     7     4     8    1
     8     4     9    1
     9     4    10    1

