@<TRIPOS>MOLECULE
DMS_2_A_1002
 10 9 0 0 0
SMALL
NO_CHARGES

@<TRIPOS>ATOM
      1 S          -7.1770  -28.0620  -21.5640 S.o   1002  DMS1002      0.0000
      2 O          -7.7920  -26.9570  -22.2730 O.2   1002  DMS1002      0.0000
      3 C1         -5.8240  -28.5800  -22.5750 C.3   1002  DMS1002      0.0000
      4 C2         -6.2080  -27.3340  -20.2600 C.3   1002  DMS1002      0.0000
      5 H          -5.2100  -29.3263  -22.0306 H     1002  DMS1002      0.0000
      6 H          -5.1901  -27.7129  -22.8527 H     1002  DMS1002      0.0000
      7 H          -6.2160  -29.0494  -23.5005 H     1002  DMS1002      0.0000
      8 H          -5.5871  -28.1131  -19.7723 H     1002  DMS1002      0.0000
      9 H          -6.8874  -26.8929  -19.5021 H     1002  DMS1002      0.0000
     10 H          -5.5512  -26.5359  -20.6631 H     1002  DMS1002      0.0000
@<TRIPOS>BOND
     1     1     2    2
     2     1     3    1
     3     1     4    1
     4     3     5    1
     5     3     6    1
     6     3     7    1
     7     4     8    1
     8     4     9    1
     9     4    10    1

