DMS_2_A_404
  -ISIS-            3D

 10  9  0  0  0  0  0  0  0  0  1 V2000
   -5.5210    0.4510  -18.2090 S   0  0  0  0  0
   -4.8370    1.6910  -18.7540 O   0  0  0  0  0
   -6.3510   -0.2550  -19.6100 C   0  0  0  0  0
   -6.9460    1.0090  -17.3480 C   0  0  0  0  0
   -7.0034   -1.0892  -19.2804 H   0  0  0  0  0
   -5.5973   -0.6510  -20.3208 H   0  0  0  0  0
   -6.9645    0.5126  -20.1256 H   0  0  0  0  0
   -7.5799    0.1439  -17.0649 H   0  0  0  0  0
   -7.5347    1.7064  -17.9790 H   0  0  0  0  0
   -6.6333    1.5379  -16.4246 H   0  0  0  0  0
  1  2  2  0  0  0
  1  3  1  0  0  0
  1  4  1  0  0  0
  3  5  1  0  0  0
  3  6  1  0  0  0
  3  7  1  0  0  0
  4  8  1  0  0  0
  4  9  1  0  0  0
  4 10  1  0  0  0
M  END
$$$$
