@<TRIPOS>MOLECULE
DMS_1_A_404
 10 9 0 0 0
SMALL
NO_CHARGES

@<TRIPOS>ATOM
      1 S           5.5210    0.4510   18.2090 S.o    404  DMS404      0.0000
      2 O           4.8370    1.6910   18.7540 O.2    404  DMS404      0.0000
      3 C1          6.3510   -0.2550   19.6100 C.3    404  DMS404      0.0000
      4 C2          6.9460    1.0090   17.3480 C.3    404  DMS404      0.0000
      5 H           7.0034   -1.0892   19.2804 H      404  DMS404      0.0000
      6 H           5.5973   -0.6510   20.3208 H      404  DMS404      0.0000
      7 H           6.9645    0.5126   20.1256 H      404  DMS404      0.0000
      8 H           7.5799    0.1439   17.0649 H      404  DMS404      0.0000
      9 H           7.5347    1.7064   17.9790 H      404  DMS404      0.0000
     10 H           6.6333    1.5379   16.4246 H      404  DMS404      0.0000
@<TRIPOS>BOND
     1     1     2    2
     2     1     3    1
     3     1     4    1
     4     3     5    1
     5     3     6    1
     6     3     7    1
     7     4     8    1
     8     4     9    1
     9     4    10    1

