@<TRIPOS>MOLECULE
DMS_1_A_402
 10 9 0 0 0
SMALL
NO_CHARGES

@<TRIPOS>ATOM
      1 S           6.1190   -0.9620   -6.2710 S.o    402  DMS402      0.0000
      2 O           7.1490   -0.7440   -7.3200 O.2    402  DMS402      0.0000
      3 C1          6.9700   -0.9230   -4.6900 C.3    402  DMS402      0.0000
      4 C2          5.7160   -2.6750   -6.3020 C.3    402  DMS402      0.0000
      5 H           6.2679   -1.2075   -3.8797 H      402  DMS402      0.0000
      6 H           7.3413    0.1050   -4.5005 H      402  DMS402      0.0000
      7 H           7.8297   -1.6236   -4.6996 H      402  DMS402      0.0000
      8 H           5.0446   -2.9200   -5.4535 H      402  DMS402      0.0000
      9 H           6.6358   -3.2907   -6.2334 H      402  DMS402      0.0000
     10 H           5.1932   -2.9131   -7.2509 H      402  DMS402      0.0000
@<TRIPOS>BOND
     1     1     2    2
     2     1     3    1
     3     1     4    1
     4     3     5    1
     5     3     6    1
     6     3     7    1
     7     4     8    1
     8     4     9    1
     9     4    10    1

