@<TRIPOS>MOLECULE
DMS_1_A_401
 10 9 0 0 0
SMALL
NO_CHARGES

@<TRIPOS>ATOM
      1 S           7.1110  -28.0810   21.5370 S.o    401  DMS401      0.0000
      2 O           7.7630  -27.0360   22.3260 O.2    401  DMS401      0.0000
      3 C1          5.8320  -28.7480   22.5710 C.3    401  DMS401      0.0000
      4 C2          6.0810  -27.2860   20.3490 C.3    401  DMS401      0.0000
      5 H           5.2150  -29.4648   21.9916 H      401  DMS401      0.0000
      6 H           5.1854  -27.9346   22.9601 H      401  DMS401      0.0000
      7 H           6.2928  -29.2832   23.4264 H      401  DMS401      0.0000
      8 H           5.4631  -28.0401   19.8202 H      401  DMS401      0.0000
      9 H           6.7147  -26.7597   19.6061 H      401  DMS401      0.0000
     10 H           5.4174  -26.5470   20.8436 H      401  DMS401      0.0000
@<TRIPOS>BOND
     1     1     2    2
     2     1     3    1
     3     1     4    1
     4     3     5    1
     5     3     6    1
     6     3     7    1
     7     4     8    1
     8     4     9    1
     9     4    10    1

