DMS_1_A_406
  -ISIS-            3D

 10  9  0  0  0  0  0  0  0  0  1 V2000
    8.5570   -4.6200   24.8620 S   0  0  0  0  0
    9.4970   -5.7910   24.8920 O   0  0  0  0  0
    9.4540   -3.2920   24.1020 C   0  0  0  0  0
    8.5260   -3.9780   26.5140 C   0  0  0  0  0
    8.8710   -2.3514   24.1788 H   0  0  0  0  0
    9.6160   -3.5256   23.0298 H   0  0  0  0  0
   10.4388   -3.1578   24.5947 H   0  0  0  0  0
    7.9645   -3.0216   26.5359 H   0  0  0  0  0
    9.5582   -3.8090   26.8835 H   0  0  0  0  0
    8.0189   -4.7054   27.1805 H   0  0  0  0  0
  1  2  2  0  0  0
  1  3  1  0  0  0
  1  4  1  0  0  0
  3  5  1  0  0  0
  3  6  1  0  0  0
  3  7  1  0  0  0
  4  8  1  0  0  0
  4  9  1  0  0  0
  4 10  1  0  0  0
M  END
$$$$
