ANN_1_A_201
  -ISIS-            3D

 18 18  0  0  0  0  0  0  0  0  1 V2000
    8.7150    6.9800   18.4280 C   0  0  0  0  0
    9.9210    6.6270   17.8230 O   0  0  0  0  0
   10.2680    5.2760   17.9270 C   0  0  0  0  0
   10.7040    4.7370   19.1230 C   0  0  0  0  0
   11.0520    3.4020   19.1980 C   0  0  0  0  0
   10.9720    2.5860   18.0750 C   0  0  0  0  0
   10.5360    3.1420   16.8810 C   0  0  0  0  0
   10.1880    4.4750   16.8120 C   0  0  0  0  0
   11.3620    1.0980   18.1440 C   0  0  0  0  0
   11.9780    0.6380   19.1400 O   0  0  0  0  0
   11.0920    0.3140   17.1970 O   0  0  0  0  0
    8.5156    8.0566   18.2514 H   0  0  0  0  0
    8.7549    6.8103   19.5236 H   0  0  0  0  0
    7.8754    6.3951   17.9980 H   0  0  0  0  0
   10.7800    5.3733   20.0205 H   0  0  0  0  0
   11.3972    2.9888   20.1608 H   0  0  0  0  0
   10.4641    2.5210   15.9720 H   0  0  0  0  0
    9.8455    4.9031   15.8548 H   0  0  0  0  0
  1  2  1  0  0  0
  1 12  1  0  0  0
  1 13  1  0  0  0
  1 14  1  0  0  0
  2  3  1  0  0  0
  3  4  2  0  0  0
  3  8  1  0  0  0
  4  5  1  0  0  0
  4 15  1  0  0  0
  5  6  2  0  0  0
  5 16  1  0  0  0
  6  7  1  0  0  0
  6  9  1  0  0  0
  7  8  2  0  0  0
  7 17  1  0  0  0
  8 18  1  0  0  0
  9 10  2  0  0  0
  9 11  2  0  0  0
M  END
$$$$
