@<TRIPOS>MOLECULE
DMS_2_A_403
 10 9 0 0 0
SMALL
NO_CHARGES

@<TRIPOS>ATOM
      1 S          -2.3090  -19.0620   -8.0720 S.o    403  DMS403      0.0000
      2 O          -3.6180  -18.7630   -8.8020 O.2    403  DMS403      0.0000
      3 C1         -1.0100  -18.2370   -8.9540 C.3    403  DMS403      0.0000
      4 C2         -1.8650  -20.7120   -8.5730 C.3    403  DMS403      0.0000
      5 H          -0.0235  -18.5540   -8.5582 H      403  DMS403      0.0000
      6 H          -1.1142  -17.1414   -8.8160 H      403  DMS403      0.0000
      7 H          -1.0674  -18.4694  -10.0373 H      403  DMS403      0.0000
      8 H          -0.8512  -20.9606   -8.1979 H      403  DMS403      0.0000
      9 H          -1.8835  -20.8004   -9.6788 H      403  DMS403      0.0000
     10 H          -2.5908  -21.4317   -8.1424 H      403  DMS403      0.0000
@<TRIPOS>BOND
     1     1     2    2
     2     1     3    1
     3     1     4    1
     4     3     5    1
     5     3     6    1
     6     3     7    1
     7     4     8    1
     8     4     9    1
     9     4    10    1

