@<TRIPOS>MOLECULE
DMS_1_A_402
 10 9 0 0 0
SMALL
NO_CHARGES

@<TRIPOS>ATOM
      1 S           6.1210   -0.9130   -6.3030 S.o    402  DMS402      0.0000
      2 O           7.0010   -0.7640   -7.4980 O.2    402  DMS402      0.0000
      3 C1          7.1840   -0.8340   -4.8900 C.3    402  DMS402      0.0000
      4 C2          5.7530   -2.6340   -6.1970 C.3    402  DMS402      0.0000
      5 H           6.6146   -1.0922   -3.9737 H      402  DMS402      0.0000
      6 H           7.5783    0.1974   -4.7854 H      402  DMS402      0.0000
      7 H           8.0368   -1.5345   -5.0049 H      402  DMS402      0.0000
      8 H           5.2222   -2.8497   -5.2473 H      402  DMS402      0.0000
      9 H           6.6841   -3.2356   -6.2439 H      402  DMS402      0.0000
     10 H           5.0970   -2.9221   -7.0439 H      402  DMS402      0.0000
@<TRIPOS>BOND
     1     1     2    2
     2     1     3    1
     3     1     4    1
     4     3     5    1
     5     3     6    1
     6     3     7    1
     7     4     8    1
     8     4     9    1
     9     4    10    1

