@<TRIPOS>MOLECULE
DMS_2_A_401
 10 9 0 0 0
SMALL
NO_CHARGES

@<TRIPOS>ATOM
      1 S          -7.1800  -28.1800  -21.3610 S.o    401  DMS401      0.0000
      2 O          -7.9100  -27.1120  -22.0700 O.2    401  DMS401      0.0000
      3 C1         -5.7740  -28.6210  -22.3560 C.3    401  DMS401      0.0000
      4 C2         -6.3040  -27.4120  -20.0470 C.3    401  DMS401      0.0000
      5 H          -5.1272  -29.3309  -21.8011 H      401  DMS401      0.0000
      6 H          -5.1890  -27.7163  -22.6208 H      401  DMS401      0.0000
      7 H          -6.1239  -29.1096  -23.2883 H      401  DMS401      0.0000
      8 H          -5.6402  -28.1500  -19.5522 H      401  DMS401      0.0000
      9 H          -7.0263  -27.0260  -19.2989 H      401  DMS401      0.0000
     10 H          -5.6952  -26.5663  -20.4276 H      401  DMS401      0.0000
@<TRIPOS>BOND
     1     1     2    2
     2     1     3    1
     3     1     4    1
     4     3     5    1
     5     3     6    1
     6     3     7    1
     7     4     8    1
     8     4     9    1
     9     4    10    1

