DMS_2_A_401
  -ISIS-            3D

 10  9  0  0  0  0  0  0  0  0  1 V2000
   -7.1800  -28.1800  -21.3610 S   0  0  0  0  0
   -7.9100  -27.1120  -22.0700 O   0  0  0  0  0
   -5.7740  -28.6210  -22.3560 C   0  0  0  0  0
   -6.3040  -27.4120  -20.0470 C   0  0  0  0  0
   -5.1272  -29.3309  -21.8011 H   0  0  0  0  0
   -5.1890  -27.7163  -22.6208 H   0  0  0  0  0
   -6.1239  -29.1096  -23.2883 H   0  0  0  0  0
   -5.6402  -28.1500  -19.5522 H   0  0  0  0  0
   -7.0263  -27.0260  -19.2989 H   0  0  0  0  0
   -5.6952  -26.5663  -20.4276 H   0  0  0  0  0
  1  2  2  0  0  0
  1  3  1  0  0  0
  1  4  1  0  0  0
  3  5  1  0  0  0
  3  6  1  0  0  0
  3  7  1  0  0  0
  4  8  1  0  0  0
  4  9  1  0  0  0
  4 10  1  0  0  0
M  END
$$$$
