@<TRIPOS>MOLECULE
DMS_1_A_402
 10 9 0 0 0
SMALL
NO_CHARGES

@<TRIPOS>ATOM
      1 S           7.1260  -21.0940   29.2750 S.o    402  DMS402      0.0000
      2 O           8.0140  -20.2440   28.4360 O.2    402  DMS402      0.0000
      3 C1          5.4770  -20.4910   29.0270 C.3    402  DMS402      0.0000
      4 C2          6.9430  -22.6310   28.4160 C.3    402  DMS402      0.0000
      5 H           4.7497  -21.1698   29.5172 H      402  DMS402      0.0000
      6 H           5.2478  -20.4241   27.9435 H      402  DMS402      0.0000
      7 H           5.3838  -19.4818   29.4779 H      402  DMS402      0.0000
      8 H           6.1798  -23.2572   28.9216 H      402  DMS402      0.0000
      9 H           7.9109  -23.1728   28.4229 H      402  DMS402      0.0000
     10 H           6.6373  -22.4534   27.3643 H      402  DMS402      0.0000
@<TRIPOS>BOND
     1     1     2    2
     2     1     3    1
     3     1     4    1
     4     3     5    1
     5     3     6    1
     6     3     7    1
     7     4     8    1
     8     4     9    1
     9     4    10    1

