DMS_1_A_403
  -ISIS-            3D

 10  9  0  0  0  0  0  0  0  0  1 V2000
    6.0640   -1.1390   -6.1950 S   0  0  0  0  0
    6.8680   -0.7820   -7.4060 O   0  0  0  0  0
    7.1810   -1.0370   -4.8230 C   0  0  0  0  0
    5.8820   -2.8990   -6.2110 C   0  0  0  0  0
    6.6899   -1.4245   -3.9071 H   0  0  0  0  0
    7.4607    0.0234   -4.6563 H   0  0  0  0  0
    8.1001   -1.6241   -5.0262 H   0  0  0  0  0
    5.4203   -3.2394   -5.2616 H   0  0  0  0  0
    6.8684   -3.3902   -6.3393 H   0  0  0  0  0
    5.2222   -3.1914   -7.0534 H   0  0  0  0  0
  1  2  2  0  0  0
  1  3  1  0  0  0
  1  4  1  0  0  0
  3  5  1  0  0  0
  3  6  1  0  0  0
  3  7  1  0  0  0
  4  8  1  0  0  0
  4  9  1  0  0  0
  4 10  1  0  0  0
M  END
$$$$
