@<TRIPOS>MOLECULE
DMS_1_A_403
 10 9 0 0 0
SMALL
NO_CHARGES

@<TRIPOS>ATOM
      1 S           6.0640   -1.1390   -6.1950 S.o    403  DMS403      0.0000
      2 O           6.8680   -0.7820   -7.4060 O.2    403  DMS403      0.0000
      3 C1          7.1810   -1.0370   -4.8230 C.3    403  DMS403      0.0000
      4 C2          5.8820   -2.8990   -6.2110 C.3    403  DMS403      0.0000
      5 H           6.6899   -1.4245   -3.9071 H      403  DMS403      0.0000
      6 H           7.4607    0.0234   -4.6563 H      403  DMS403      0.0000
      7 H           8.1001   -1.6241   -5.0262 H      403  DMS403      0.0000
      8 H           5.4203   -3.2394   -5.2616 H      403  DMS403      0.0000
      9 H           6.8684   -3.3902   -6.3393 H      403  DMS403      0.0000
     10 H           5.2222   -3.1914   -7.0534 H      403  DMS403      0.0000
@<TRIPOS>BOND
     1     1     2    2
     2     1     3    1
     3     1     4    1
     4     3     5    1
     5     3     6    1
     6     3     7    1
     7     4     8    1
     8     4     9    1
     9     4    10    1

