@<TRIPOS>MOLECULE
DMS_2_A_401
 10 9 0 0 0
SMALL
NO_CHARGES

@<TRIPOS>ATOM
      1 S          -6.9100  -27.8590  -21.4590 S.o    401  DMS401      0.0000
      2 O          -6.0980  -26.9840  -20.5200 O.2    401  DMS401      0.0000
      3 C1         -7.7620  -26.7710  -22.4800 C.3    401  DMS401      0.0000
      4 C2         -5.7380  -28.4650  -22.6400 C.3    401  DMS401      0.0000
      5 H          -8.2567  -27.3278  -23.3018 H      401  DMS401      0.0000
      6 H          -7.0737  -26.0166  -22.9137 H      401  DMS401      0.0000
      7 H          -8.5418  -26.2445  -21.8925 H      401  DMS401      0.0000
      8 H          -6.2669  -28.9937  -23.4592 H      401  DMS401      0.0000
      9 H          -5.0498  -29.1779  -22.1414 H      401  DMS401      0.0000
     10 H          -5.1448  -27.6285  -23.0635 H      401  DMS401      0.0000
@<TRIPOS>BOND
     1     1     2    2
     2     1     3    1
     3     1     4    1
     4     3     5    1
     5     3     6    1
     6     3     7    1
     7     4     8    1
     8     4     9    1
     9     4    10    1

