@<TRIPOS>MOLECULE
DMS_1_A_402
 10 9 0 0 0
SMALL
NO_CHARGES

@<TRIPOS>ATOM
      1 S           6.0440   -0.9640   -6.3750 S.o    402  DMS402      0.0000
      2 O           6.9070   -0.7710   -7.5680 O.2    402  DMS402      0.0000
      3 C1          7.1170   -0.8900   -4.9550 C.3    402  DMS402      0.0000
      4 C2          5.6730   -2.6870   -6.2940 C.3    402  DMS402      0.0000
      5 H           6.5510   -1.1627   -4.0408 H      402  DMS402      0.0000
      6 H           7.5028    0.1438   -4.8418 H      402  DMS402      0.0000
      7 H           7.9739   -1.5832   -5.0810 H      402  DMS402      0.0000
      8 H           5.1437   -2.9153   -5.3463 H      402  DMS402      0.0000
      9 H           6.6037   -3.2881   -6.3510 H      402  DMS402      0.0000
     10 H           5.0154   -2.9611   -7.1442 H      402  DMS402      0.0000
@<TRIPOS>BOND
     1     1     2    2
     2     1     3    1
     3     1     4    1
     4     3     5    1
     5     3     6    1
     6     3     7    1
     7     4     8    1
     8     4     9    1
     9     4    10    1

