DMS_2_A_401
  -ISIS-            3D

 10  9  0  0  0  0  0  0  0  0  1 V2000
   -7.1450  -28.1710  -21.3460 S   0  0  0  0  0
   -7.9460  -27.2840  -22.2260 O   0  0  0  0  0
   -5.9660  -28.9730  -22.4100 C   0  0  0  0  0
   -6.0070  -27.1220  -20.4930 C   0  0  0  0  0
   -5.2356  -29.5432  -21.8003 H   0  0  0  0  0
   -5.4281  -28.2236  -23.0265 H   0  0  0  0  0
   -6.4983  -29.6774  -23.0815 H   0  0  0  0  0
   -5.2765  -27.7373  -19.9291 H   0  0  0  0  0
   -6.5628  -26.4829  -19.7768 H   0  0  0  0  0
   -5.4656  -26.4715  -21.2104 H   0  0  0  0  0
  1  2  2  0  0  0
  1  3  1  0  0  0
  1  4  1  0  0  0
  3  5  1  0  0  0
  3  6  1  0  0  0
  3  7  1  0  0  0
  4  8  1  0  0  0
  4  9  1  0  0  0
  4 10  1  0  0  0
M  END
$$$$
