@<TRIPOS>MOLECULE
DMS_1_A_403
 10 9 0 0 0
SMALL
NO_CHARGES

@<TRIPOS>ATOM
      1 S           2.4050  -19.0730    8.2350 S.o    403  DMS403      0.0000
      2 O           3.7470  -18.8290    8.8960 O.2    403  DMS403      0.0000
      3 C1          1.2140  -18.1800    9.2060 C.3    403  DMS403      0.0000
      4 C2          1.9220  -20.7130    8.7330 C.3    403  DMS403      0.0000
      5 H           0.1877  -18.4388    8.8743 H      403  DMS403      0.0000
      6 H           1.3710  -17.0908    9.0665 H      403  DMS403      0.0000
      7 H           1.3284  -18.4261   10.2816 H      403  DMS403      0.0000
      8 H           0.8780  -20.9107    8.4146 H      403  DMS403      0.0000
      9 H           2.0001  -20.8219    9.8342 H      403  DMS403      0.0000
     10 H           2.5903  -21.4540    8.2485 H      403  DMS403      0.0000
@<TRIPOS>BOND
     1     1     2    2
     2     1     3    1
     3     1     4    1
     4     3     5    1
     5     3     6    1
     6     3     7    1
     7     4     8    1
     8     4     9    1
     9     4    10    1

