DMS_2_A_403
  -ISIS-            3D

 10  9  0  0  0  0  0  0  0  0  1 V2000
   -2.4050  -19.0730   -8.2350 S   0  0  0  0  0
   -3.7470  -18.8290   -8.8960 O   0  0  0  0  0
   -1.2140  -18.1800   -9.2060 C   0  0  0  0  0
   -1.9220  -20.7130   -8.7330 C   0  0  0  0  0
   -0.1877  -18.4388   -8.8743 H   0  0  0  0  0
   -1.3710  -17.0908   -9.0665 H   0  0  0  0  0
   -1.3284  -18.4261  -10.2816 H   0  0  0  0  0
   -0.8780  -20.9107   -8.4146 H   0  0  0  0  0
   -2.0001  -20.8219   -9.8342 H   0  0  0  0  0
   -2.5903  -21.4540   -8.2485 H   0  0  0  0  0
  1  2  2  0  0  0
  1  3  1  0  0  0
  1  4  1  0  0  0
  3  5  1  0  0  0
  3  6  1  0  0  0
  3  7  1  0  0  0
  4  8  1  0  0  0
  4  9  1  0  0  0
  4 10  1  0  0  0
M  END
$$$$
