3BZ_1_A_201
  -ISIS-            3D

 14 14  0  0  0  0  0  0  0  0  1 V2000
  -48.6620  -28.9870    7.3720 Cl  0  0  0  0  0
  -48.6730  -28.9840    5.5760 C   0  0  0  0  0
  -49.8120  -28.6820    4.8570 C   0  0  0  0  0
  -49.7650  -28.6940    3.4770 C   0  0  0  0  0
  -48.5820  -29.0060    2.8300 C   0  0  0  0  0
  -47.4950  -29.2620    4.9260 C   0  0  0  0  0
  -47.4480  -29.2830    3.5580 C   0  0  0  0  0
  -46.1400  -29.6000    2.8550 C   0  0  0  0  0
  -46.1350  -29.7690    1.6040 O   0  0  0  0  0
  -45.0950  -29.6570    3.5580 O   0  0  0  0  0
  -50.7532  -28.4364    5.3767 H   0  0  0  0  0
  -50.6700  -28.4588    2.8915 H   0  0  0  0  0
  -48.5616  -29.0208    1.7274 H   0  0  0  0  0
  -46.5899  -29.4757    5.5182 H   0  0  0  0  0
  1  2  1  0  0  0
  2  3  2  0  0  0
  2  6  1  0  0  0
  3  4  1  0  0  0
  3 11  1  0  0  0
  4  5  2  0  0  0
  4 12  1  0  0  0
  5  7  1  0  0  0
  5 13  1  0  0  0
  6  7  2  0  0  0
  6 14  1  0  0  0
  7  8  1  0  0  0
  8  9  2  0  0  0
  8 10  2  0  0  0
M  END
$$$$
