@<TRIPOS>MOLECULE
DMS_2_A_501
 10 9 0 0 0
SMALL
NO_CHARGES

@<TRIPOS>ATOM
      1 S         -13.8150   -2.5110    6.4460 S.o    501  DMS501      0.0000
      2 O         -14.7440   -2.2650    7.6010 O.2    501  DMS501      0.0000
      3 C1        -12.9730   -1.0070    5.9320 C.3    501  DMS501      0.0000
      4 C2        -12.4620   -3.6430    6.9280 C.3    501  DMS501      0.0000
      5 H         -12.3016   -1.2317    5.0782 H      501  DMS501      0.0000
      6 H         -12.3774   -0.6045    6.7767 H      501  DMS501      0.0000
      7 H         -13.7246   -0.2538    5.6188 H      501  DMS501      0.0000
      8 H         -11.7950   -3.8109    6.0578 H      501  DMS501      0.0000
      9 H         -12.8945   -4.6111    7.2536 H      501  DMS501      0.0000
     10 H         -11.8830   -3.1959    7.7618 H      501  DMS501      0.0000
@<TRIPOS>BOND
     1     1     2    2
     2     1     3    1
     3     1     4    1
     4     3     5    1
     5     3     6    1
     6     3     7    1
     7     4     8    1
     8     4     9    1
     9     4    10    1

