@<TRIPOS>MOLECULE
CMU_1_A_401
 25 26 0 0 0
SMALL
NO_CHARGES

@<TRIPOS>ATOM
      1 CL1        62.4760  -72.0580   23.6500 Cl     401  CMU401      0.0000
      2 C2         62.8510  -70.8200   24.7910 C.ar   401  CMU401      0.0000
      3 C3         63.5220  -71.0750   25.9490 C.ar   401  CMU401      0.0000
      4 C4         63.9450  -72.4730   26.3710 C.3    401  CMU401      0.0000
      5 N5         65.1590  -72.9860   25.7640 N.ar   401  CMU401      0.0000
      6 C6         65.1160  -73.8260   24.5750 C.ar   401  CMU401      0.0000
      7 C7         66.5350  -73.7300   24.0440 C.ar   401  CMU401      0.0000
      8 C8         67.3980  -73.4680   25.2740 C.ar   401  CMU401      0.0000
      9 C9         66.4460  -72.8140   26.2320 C.ar   401  CMU401      0.0000
     10 N10        66.7670  -72.2440   27.3290 N.pl3  401  CMU401      0.0000
     11 N11        63.7780  -70.0350   26.8120 N.ar   401  CMU401      0.0000
     12 C12        63.4280  -68.7360   26.5450 C.ar   401  CMU401      0.0000
     13 O13        63.6330  -67.8210   27.3220 O.2    401  CMU401      0.0000
     14 N14        62.7570  -68.5170   25.3790 N.ar   401  CMU401      0.0000
     15 C15        62.4490  -69.4900   24.4620 C.ar   401  CMU401      0.0000
     16 O16        61.8440  -69.1490   23.4250 O.2    401  CMU401      0.0000
     17 H          63.1093  -73.1755   26.1522 H      401  CMU401      0.0000
     18 H          64.0297  -72.5133   27.4794 H      401  CMU401      0.0000
     19 H          64.1918  -74.1812   24.1100 H      401  CMU401      0.0000
     20 H          66.8762  -73.9761   23.0307 H      401  CMU401      0.0000
     21 H          68.4844  -73.5822   25.3726 H      401  CMU401      0.0000
     22 H          67.7748  -72.2039   27.5261 H      401  CMU401      0.0000
     23 H          66.0211  -71.8727   27.9275 H      401  CMU401      0.0000
     24 H          62.4665  -67.5522   25.1718 H      401  CMU401      0.0000
     25 H          64.2634  -70.2747   27.6850 H      401  CMU401      0.0000
@<TRIPOS>BOND
     1     1     2    1
     2     2     3   ar
     3     2    15   ar
     4     3     4    1
     5     3    11   ar
     6     4     5    1
     7     4    17    1
     8     4    18    1
     9     5     6   ar
    10     5     9   ar
    11     6     7   ar
    12     6    19    1
    13     7     8   ar
    14     7    20    1
    15     8     9   ar
    16     8    21    1
    17     9    10    1
    18    10    22    1
    19    10    23    1
    20    11    12   ar
    21    11    25    1
    22    12    13    2
    23    12    14   ar
    24    14    15   ar
    25    14    24    1
    26    15    16    2

