@<TRIPOS>MOLECULE
CMU_3_A_401
 25 26 0 0 0
SMALL
NO_CHARGES

@<TRIPOS>ATOM
      1 CL1        57.2210  -18.0770   23.6500 Cl     401  CMU401      0.0000
      2 C2         58.1060  -19.0200   24.7910 C.ar   401  CMU401      0.0000
      3 C3         57.5490  -19.4740   25.9490 C.ar   401  CMU401      0.0000
      4 C4         56.1270  -19.1410   26.3710 C.3    401  CMU401      0.0000
      5 N5         55.0760  -19.9360   25.7640 N.ar   401  CMU401      0.0000
      6 C6         54.3700  -19.4790   24.5750 C.ar   401  CMU401      0.0000
      7 C7         53.7440  -20.7560   24.0440 C.ar   401  CMU401      0.0000
      8 C8         53.5390  -21.6350   25.2740 C.ar   401  CMU401      0.0000
      9 C9         54.5810  -21.1360   26.2320 C.ar   401  CMU401      0.0000
     10 N10        54.9140  -21.7000   27.3290 N.pl3  401  CMU401      0.0000
     11 N11        58.3220  -20.2150   26.8120 N.ar   401  CMU401      0.0000
     12 C12        59.6220  -20.5620   26.5450 C.ar   401  CMU401      0.0000
     13 O13        60.3120  -21.1970   27.3220 O.2    401  CMU401      0.0000
     14 N14        60.1470  -20.0910   25.3790 N.ar   401  CMU401      0.0000
     15 C15        59.4590  -19.3370   24.4620 C.ar   401  CMU401      0.0000
     16 O16        60.0560  -18.9840   23.4250 O.2    401  CMU401      0.0000
     17 H          55.9365  -18.0659   26.1527 H      401  CMU401      0.0000
     18 H          56.0496  -19.1947   27.4793 H      401  CMU401      0.0000
     19 H          54.5242  -18.5011   24.1095 H      401  CMU401      0.0000
     20 H          53.3606  -20.9285   23.0305 H      401  CMU401      0.0000
     21 H          52.8974  -22.5192   25.3724 H      401  CMU401      0.0000
     22 H          54.4428  -22.5918   27.5259 H      401  CMU401      0.0000
     23 H          55.6100  -21.2414   27.9269 H      401  CMU401      0.0000
     24 H          61.1276  -20.3226   25.1717 H      401  CMU401      0.0000
     25 H          57.8718  -20.5148   27.6854 H      401  CMU401      0.0000
@<TRIPOS>BOND
     1     1     2    1
     2     2     3   ar
     3     2    15   ar
     4     3     4    1
     5     3    11   ar
     6     4     5    1
     7     4    17    1
     8     4    18    1
     9     5     6   ar
    10     5     9   ar
    11     6     7   ar
    12     6    19    1
    13     7     8   ar
    14     7    20    1
    15     8     9   ar
    16     8    21    1
    17     9    10    1
    18    10    22    1
    19    10    23    1
    20    11    12   ar
    21    11    25    1
    22    12    13    2
    23    12    14   ar
    24    14    15   ar
    25    14    24    1
    26    15    16    2

