@<TRIPOS>MOLECULE
CMU_1_B_401
 25 26 0 0 0
SMALL
NO_CHARGES

@<TRIPOS>ATOM
      1 CL1        50.1500  -24.7560  -23.4960 Cl     401  CMU401      0.0000
      2 C2         51.1580  -25.6030  -24.6070 C.ar   401  CMU401      0.0000
      3 C3         51.6580  -25.0070  -25.7230 C.ar   401  CMU401      0.0000
      4 C4         51.3310  -23.5800  -26.1080 C.3    401  CMU401      0.0000
      5 N5         52.1500  -22.5510  -25.4960 N.ar   401  CMU401      0.0000
      6 C6         51.7400  -21.8700  -24.2720 C.ar   401  CMU401      0.0000
      7 C7         53.0360  -21.2250  -23.7990 C.ar   401  CMU401      0.0000
      8 C8         53.8490  -21.0020  -25.0690 C.ar   401  CMU401      0.0000
      9 C9         53.2980  -22.0270  -26.0180 C.ar   401  CMU401      0.0000
     10 N10        53.7770  -22.3280  -27.1640 N.pl3  401  CMU401      0.0000
     11 N11        52.4310  -25.7450  -26.5820 N.ar   401  CMU401      0.0000
     12 C12        52.7730  -27.0570  -26.3550 C.ar   401  CMU401      0.0000
     13 O13        53.4710  -27.6920  -27.1230 O.2    401  CMU401      0.0000
     14 N14        52.2650  -27.6330  -25.2230 N.ar   401  CMU401      0.0000
     15 C15        51.4660  -26.9760  -24.3160 C.ar   401  CMU401      0.0000
     16 O16        51.0710  -27.6000  -23.3120 O.2    401  CMU401      0.0000
     17 H          50.2652  -23.3767  -25.8588 H      401  CMU401      0.0000
     18 H          51.3483  -23.4870  -27.2158 H      401  CMU401      0.0000
     19 H          50.7882  -22.0460  -23.7626 H      401  CMU401      0.0000
     20 H          53.2544  -20.8476  -22.7922 H      401  CMU401      0.0000
     21 H          54.7222  -20.3526  -25.2066 H      401  CMU401      0.0000
     22 H          54.6499  -21.8446  -27.4103 H      401  CMU401      0.0000
     23 H          53.2850  -23.0072  -27.7538 H      401  CMU401      0.0000
     24 H          52.4995  -28.6174  -25.0391 H      401  CMU401      0.0000
     25 H          52.7676  -25.2589  -27.4220 H      401  CMU401      0.0000
@<TRIPOS>BOND
     1     1     2    1
     2     2     3   ar
     3     2    15   ar
     4     3     4    1
     5     3    11   ar
     6     4     5    1
     7     4    17    1
     8     4    18    1
     9     5     6   ar
    10     5     9   ar
    11     6     7   ar
    12     6    19    1
    13     7     8   ar
    14     7    20    1
    15     8     9   ar
    16     8    21    1
    17     9    10    1
    18    10    22    1
    19    10    23    1
    20    11    12   ar
    21    11    25    1
    22    12    13    2
    23    12    14   ar
    24    14    15   ar
    25    14    24    1
    26    15    16    2

