@<TRIPOS>MOLECULE
CMU_2_B_401
 25 26 0 0 0
SMALL
NO_CHARGES

@<TRIPOS>ATOM
      1 CL1        71.7950  -74.8420  -23.4960 Cl     401  CMU401      0.0000
      2 C2         72.0250  -73.5460  -24.6070 C.ar   401  CMU401      0.0000
      3 C3         71.2600  -73.4110  -25.7230 C.ar   401  CMU401      0.0000
      4 C4         70.1870  -74.4070  -26.1080 C.3    401  CMU401      0.0000
      5 N5         68.8860  -74.2120  -25.4960 N.ar   401  CMU401      0.0000
      6 C6         68.5010  -74.9080  -24.2720 C.ar   401  CMU401      0.0000
      7 C7         67.2960  -74.1080  -23.7990 C.ar   401  CMU401      0.0000
      8 C8         66.6950  -73.5150  -25.0690 C.ar   401  CMU401      0.0000
      9 C9         67.8590  -73.4800  -26.0180 C.ar   401  CMU401      0.0000
     10 N10        67.8790  -72.9150  -27.1640 N.pl3  401  CMU401      0.0000
     11 N11        71.5120  -72.3720  -26.5820 N.ar   401  CMU401      0.0000
     12 C12        72.4770  -71.4200  -26.3550 C.ar   401  CMU401      0.0000
     13 O13        72.6790  -70.4980  -27.1230 O.2    401  CMU401      0.0000
     14 N14        73.2300  -71.5720  -25.2230 N.ar   401  CMU401      0.0000
     15 C15        73.0600  -72.5930  -24.3160 C.ar   401  CMU401      0.0000
     16 O16        73.7980  -72.6220  -23.3120 O.2    401  CMU401      0.0000
     17 H          70.5433  -75.4318  -25.8591 H      401  CMU401      0.0000
     18 H          70.0977  -74.4382  -27.2159 H      401  CMU401      0.0000
     19 H          69.1292  -75.6447  -23.7631 H      401  CMU401      0.0000
     20 H          66.8605  -74.1073  -22.7919 H      401  CMU401      0.0000
     21 H          65.6960  -73.0834  -25.2064 H      401  CMU401      0.0000
     22 H          67.0238  -72.4007  -27.4096 H      401  CMU401      0.0000
     23 H          68.7127  -73.0019  -27.7546 H      401  CMU401      0.0000
     24 H          73.9654  -70.8769  -25.0390 H      401  CMU401      0.0000
     25 H          70.9224  -72.3234  -27.4218 H      401  CMU401      0.0000
@<TRIPOS>BOND
     1     1     2    1
     2     2     3   ar
     3     2    15   ar
     4     3     4    1
     5     3    11   ar
     6     4     5    1
     7     4    17    1
     8     4    18    1
     9     5     6   ar
    10     5     9   ar
    11     6     7   ar
    12     6    19    1
    13     7     8   ar
    14     7    20    1
    15     8     9   ar
    16     8    21    1
    17     9    10    1
    18    10    22    1
    19    10    23    1
    20    11    12   ar
    21    11    25    1
    22    12    13    2
    23    12    14   ar
    24    14    15   ar
    25    14    24    1
    26    15    16    2

