@<TRIPOS>MOLECULE
CMU_3_B_401
 25 26 0 0 0
SMALL
NO_CHARGES

@<TRIPOS>ATOM
      1 CL1       104.3490  -31.0540  -23.4960 Cl     401  CMU401      0.0000
      2 C2        103.1120  -31.5030  -24.6070 C.ar   401  CMU401      0.0000
      3 C3        103.3770  -32.2330  -25.7230 C.ar   401  CMU401      0.0000
      4 C4        104.7770  -32.6640  -26.1080 C.3    401  CMU401      0.0000
      5 N5        105.2580  -33.8880  -25.4960 N.ar   401  CMU401      0.0000
      6 C6        106.0530  -33.8730  -24.2720 C.ar   401  CMU401      0.0000
      7 C7        105.9630  -35.3170  -23.7990 C.ar   401  CMU401      0.0000
      8 C8        105.7500  -36.1340  -25.0690 C.ar   401  CMU401      0.0000
      9 C9        105.1380  -35.1430  -26.0180 C.ar   401  CMU401      0.0000
     10 N10       104.6380  -35.4090  -27.1640 N.pl3  401  CMU401      0.0000
     11 N11       102.3510  -32.5340  -26.5820 N.ar   401  CMU401      0.0000
     12 C12       101.0450  -32.1740  -26.3550 C.ar   401  CMU401      0.0000
     13 O13       100.1450  -32.4610  -27.1230 O.2    401  CMU401      0.0000
     14 N14       100.8000  -31.4470  -25.2230 N.ar   401  CMU401      0.0000
     15 C15       101.7690  -31.0830  -24.3160 C.ar   401  CMU401      0.0000
     16 O16       101.4250  -30.4290  -23.3120 O.2    401  CMU401      0.0000
     17 H         105.4861  -31.8428  -25.8590 H      401  CMU401      0.0000
     18 H         104.8487  -32.7257  -27.2159 H      401  CMU401      0.0000
     19 H         106.3768  -32.9605  -23.7628 H      401  CMU401      0.0000
     20 H         106.1802  -35.6946  -22.7919 H      401  CMU401      0.0000
     21 H         105.8755  -37.2150  -25.2064 H      401  CMU401      0.0000
     22 H         104.6207  -36.4069  -27.4092 H      401  CMU401      0.0000
     23 H         104.2956  -34.6438  -27.7545 H      401  CMU401      0.0000
     24 H          99.8301  -31.1584  -25.0388 H      401  CMU401      0.0000
     25 H         102.6037  -33.0690  -27.4218 H      401  CMU401      0.0000
@<TRIPOS>BOND
     1     1     2    1
     2     2     3   ar
     3     2    15   ar
     4     3     4    1
     5     3    11   ar
     6     4     5    1
     7     4    17    1
     8     4    18    1
     9     5     6   ar
    10     5     9   ar
    11     6     7   ar
    12     6    19    1
    13     7     8   ar
    14     7    20    1
    15     8     9   ar
    16     8    21    1
    17     9    10    1
    18    10    22    1
    19    10    23    1
    20    11    12   ar
    21    11    25    1
    22    12    13    2
    23    12    14   ar
    24    14    15   ar
    25    14    24    1
    26    15    16    2

