@<TRIPOS>MOLECULE
EDO_1_A_406
 10 9 0 0 0
SMALL
NO_CHARGES

@<TRIPOS>ATOM
      1 C1         50.8330  -51.6040    9.2860 C.3    406  EDO406      0.0000
      2 O1         50.8910  -50.2330    8.8510 O.3    406  EDO406      0.0000
      3 C2         50.7460  -51.6890   10.8080 C.3    406  EDO406      0.0000
      4 O2         51.9440  -51.1170   11.3790 O.3    406  EDO406      0.0000
      5 H          51.7308  -52.1473    8.9220 H      406  EDO406      0.0000
      6 H          49.9457  -52.0939    8.8316 H      406  EDO406      0.0000
      7 H          50.9378  -50.2255    7.9044 H      406  EDO406      0.0000
      8 H          50.6585  -52.7447   11.1375 H      406  EDO406      0.0000
      9 H          49.8550  -51.1460   11.1866 H      406  EDO406      0.0000
     10 H          52.0517  -50.2659   10.9705 H      406  EDO406      0.0000
@<TRIPOS>BOND
     1     1     2    1
     2     1     3    1
     3     1     5    1
     4     1     6    1
     5     2     7    1
     6     3     4    1
     7     3     8    1
     8     3     9    1
     9     4    10    1

