@<TRIPOS>MOLECULE
EDO_2_A_407
 10 9 0 0 0
SMALL
NO_CHARGES

@<TRIPOS>ATOM
      1 C1         85.0430  -73.0730   36.2730 C.3    407  EDO407      0.0000
      2 O1         85.8490  -71.9170   36.0350 O.3    407  EDO407      0.0000
      3 C2         84.2610  -73.3760   35.0030 C.3    407  EDO407      0.0000
      4 O2         84.0300  -74.7870   34.8970 O.3    407  EDO407      0.0000
      5 H          84.3603  -72.9009   37.1310 H      407  EDO407      0.0000
      6 H          85.7061  -73.9255   36.5325 H      407  EDO407      0.0000
      7 H          86.3644  -71.7513   36.8133 H      407  EDO407      0.0000
      8 H          84.8352  -73.0456   34.1110 H      407  EDO407      0.0000
      9 H          83.2952  -72.8287   34.9964 H      407  EDO407      0.0000
     10 H          83.5775  -74.9511   34.0802 H      407  EDO407      0.0000
@<TRIPOS>BOND
     1     1     2    1
     2     1     3    1
     3     1     5    1
     4     1     6    1
     5     2     7    1
     6     3     4    1
     7     3     8    1
     8     3     9    1
     9     4    10    1

