@<TRIPOS>MOLECULE
EDO_2_A_405
 10 9 0 0 0
SMALL
NO_CHARGES

@<TRIPOS>ATOM
      1 C1         76.7660  -63.6090    0.0340 C.3    405  EDO405      0.0000
      2 O1         76.1730  -64.5180   -0.9110 O.3    405  EDO405      0.0000
      3 C2         77.4950  -64.2860    1.1900 C.3    405  EDO405      0.0000
      4 O2         78.3970  -65.3030    0.6930 O.3    405  EDO405      0.0000
      5 H          75.9710  -62.9424    0.4283 H      405  EDO405      0.0000
      6 H          77.4762  -62.9548   -0.5151 H      405  EDO405      0.0000
      7 H          76.7492  -65.2730   -0.9483 H      405  EDO405      0.0000
      8 H          76.7587  -64.7739    1.8622 H      405  EDO405      0.0000
      9 H          78.0501  -63.5437    1.8014 H      405  EDO405      0.0000
     10 H          79.2441  -64.9035    0.5447 H      405  EDO405      0.0000
@<TRIPOS>BOND
     1     1     2    1
     2     1     3    1
     3     1     5    1
     4     1     6    1
     5     2     7    1
     6     3     4    1
     7     3     8    1
     8     3     9    1
     9     4    10    1

