@<TRIPOS>MOLECULE
EDO_3_A_403
 10 9 0 0 0
SMALL
NO_CHARGES

@<TRIPOS>ATOM
      1 C1         86.2480  -39.0570   14.6620 C.3    403  EDO403      0.0000
      2 O1         85.0600  -39.7890   14.3450 O.3    403  EDO403      0.0000
      3 C2         86.6300  -39.2470   16.1140 C.3    403  EDO403      0.0000
      4 O2         85.8020  -38.4150   16.9390 O.3    403  EDO403      0.0000
      5 H          86.1098  -37.9829   14.4180 H      403  EDO403      0.0000
      6 H          87.0637  -39.4302   14.0080 H      403  EDO403      0.0000
      7 H          84.3742  -39.4536   14.9090 H      403  EDO403      0.0000
      8 H          87.6920  -38.9580   16.2653 H      403  EDO403      0.0000
      9 H          86.5292  -40.3101   16.4177 H      403  EDO403      0.0000
     10 H          86.0614  -38.5414   17.8421 H      403  EDO403      0.0000
@<TRIPOS>BOND
     1     1     2    1
     2     1     3    1
     3     1     5    1
     4     1     6    1
     5     2     7    1
     6     3     4    1
     7     3     8    1
     8     3     9    1
     9     4    10    1

