@<TRIPOS>MOLECULE
EDO_1_B_407
 10 9 0 0 0
SMALL
NO_CHARGES

@<TRIPOS>ATOM
      1 C1         67.3810  -51.5500  -14.3750 C.3    407  EDO407      0.0000
      2 O1         67.6670  -52.9670  -14.7840 O.3    407  EDO407      0.0000
      3 C2         68.7260  -51.5860  -13.7800 C.3    407  EDO407      0.0000
      4 O2         69.7880  -50.5400  -14.0120 O.3    407  EDO407      0.0000
      5 H          66.5333  -51.4951  -13.6635 H      407  EDO407      0.0000
      6 H          67.2857  -50.8931  -15.2617 H      407  EDO407      0.0000
      7 H          66.8858  -53.3012  -15.2050 H      407  EDO407      0.0000
      8 H          69.2766  -52.5509  -13.8594 H      407  EDO407      0.0000
      9 H          68.5424  -51.5350  -12.6821 H      407  EDO407      0.0000
     10 H          70.1678  -50.7217  -14.8614 H      407  EDO407      0.0000
@<TRIPOS>BOND
     1     1     2    1
     2     1     3    1
     3     1     5    1
     4     1     6    1
     5     2     7    1
     6     3     4    1
     7     3     8    1
     8     3     9    1
     9     4    10    1

