EDO_2_A_410
  -ISIS-            3D

 10  9  0  0  0  0  0  0  0  0  1 V2000
  121.2550  -41.2750   34.9660 C   0  0  0  0  0
  121.5240  -40.2430   36.0220 O   0  0  0  0  0
  120.5820  -42.3950   35.6530 C   0  0  0  0  0
  120.3610  -41.5200   36.8100 O   0  0  0  0  0
  122.2011  -41.5871   34.4772 H   0  0  0  0  0
  120.6033  -40.8238   34.1889 H   0  0  0  0  0
  122.3133  -40.4976   36.4871 H   0  0  0  0  0
  121.2486  -43.2389   35.9214 H   0  0  0  0  0
  119.6307  -42.7192   35.1859 H   0  0  0  0  0
  119.7162  -41.9359   37.3712 H   0  0  0  0  0
  1  2  1  0  0  0
  1  3  1  0  0  0
  1  5  1  0  0  0
  1  6  1  0  0  0
  2  7  1  0  0  0
  3  4  1  0  0  0
  3  8  1  0  0  0
  3  9  1  0  0  0
  4 10  1  0  0  0
M  END
$$$$
