EDO_2_A_406
  -ISIS-            3D

 10  9  0  0  0  0  0  0  0  0  1 V2000
   94.7050  -60.8270    9.2860 C   0  0  0  0  0
   93.4890  -61.4620    8.8510 O   0  0  0  0  0
   94.8230  -60.8590   10.8080 C   0  0  0  0  0
   93.7280  -60.1080   11.3790 O   0  0  0  0  0
   94.7265  -59.7782    8.9213 H   0  0  0  0  0
   95.5730  -61.3507    8.8320 H   0  0  0  0  0
   93.4676  -61.4417    7.9035 H   0  0  0  0  0
   95.7806  -60.4056   11.1368 H   0  0  0  0  0
   94.7994  -61.9019   11.1873 H   0  0  0  0  0
   92.9372  -60.4421   10.9718 H   0  0  0  0  0
  1  2  1  0  0  0
  1  3  1  0  0  0
  1  5  1  0  0  0
  1  6  1  0  0  0
  2  7  1  0  0  0
  3  4  1  0  0  0
  3  8  1  0  0  0
  3  9  1  0  0  0
  4 10  1  0  0  0
M  END
$$$$
