@<TRIPOS>MOLECULE
EDO_2_B_407
 10 9 0 0 0
SMALL
NO_CHARGES

@<TRIPOS>ATOM
      1 C1         86.3850  -46.5230  -14.3750 C.3    407  EDO407      0.0000
      2 O1         87.4680  -45.5660  -14.7840 O.3    407  EDO407      0.0000
      3 C2         85.7430  -45.3400  -13.7800 C.3    407  EDO407      0.0000
      4 O2         84.3060  -44.9430  -14.0120 O.3    407  EDO407      0.0000
      5 H          86.7649  -47.2839  -13.6648 H      407  EDO407      0.0000
      6 H          85.8616  -46.9344  -15.2603 H      407  EDO407      0.0000
      7 H          88.0632  -46.0409  -15.3491 H      407  EDO407      0.0000
      8 H          86.3040  -44.3830  -13.8837 H      407  EDO407      0.0000
      9 H          85.8048  -45.5141  -12.6804 H      407  EDO407      0.0000
     10 H          84.1739  -44.0909  -13.6181 H      407  EDO407      0.0000
@<TRIPOS>BOND
     1     1     2    1
     2     1     3    1
     3     1     5    1
     4     1     6    1
     5     2     7    1
     6     3     4    1
     7     3     8    1
     8     3     9    1
     9     4    10    1

