EDO_1_A_410
  -ISIS-            3D

 10  9  0  0  0  0  0  0  0  0  1 V2000
   54.4910  -84.3720   34.9660 C   0  0  0  0  0
   55.2490  -85.1220   36.0220 O   0  0  0  0  0
   53.8570  -83.2300   35.6530 C   0  0  0  0  0
   54.7250  -83.4760   36.8100 O   0  0  0  0  0
   53.7415  -85.0393   34.4926 H   0  0  0  0  0
   55.1950  -84.0290   34.1778 H   0  0  0  0  0
   55.8915  -85.6667   35.5821 H   0  0  0  0  0
   52.7872  -83.3760   35.9055 H   0  0  0  0  0
   54.0629  -82.2413   35.1983 H   0  0  0  0  0
   54.1929  -83.8134   37.5220 H   0  0  0  0  0
  1  2  1  0  0  0
  1  3  1  0  0  0
  1  5  1  0  0  0
  1  6  1  0  0  0
  2  7  1  0  0  0
  3  4  1  0  0  0
  3  8  1  0  0  0
  3  9  1  0  0  0
  4 10  1  0  0  0
M  END
$$$$
