EDO_1_A_403
  -ISIS-            3D

 10  9  0  0  0  0  0  0  0  0  1 V2000
   66.1320  -36.4300   14.6620 C   0  0  0  0  0
   67.3600  -37.0930   14.3450 O   0  0  0  0  0
   66.1050  -36.0040   16.1140 C   0  0  0  0  0
   65.7990  -37.1370   16.9390 O   0  0  0  0  0
   65.2713  -37.0915   14.4281 H   0  0  0  0  0
   66.0368  -35.5332   14.0129 H   0  0  0  0  0
   67.3385  -37.3356   13.4289 H   0  0  0  0  0
   65.3177  -35.2376   16.2725 H   0  0  0  0  0
   67.0693  -35.5506   16.4247 H   0  0  0  0  0
   66.4876  -37.7744   16.7952 H   0  0  0  0  0
  1  2  1  0  0  0
  1  3  1  0  0  0
  1  5  1  0  0  0
  1  6  1  0  0  0
  2  7  1  0  0  0
  3  4  1  0  0  0
  3  8  1  0  0  0
  3  9  1  0  0  0
  4 10  1  0  0  0
M  END
$$$$
