@<TRIPOS>MOLECULE
EDO_2_A_404
 10 9 0 0 0
SMALL
NO_CHARGES

@<TRIPOS>ATOM
      1 C1         62.7880  -59.7250   -0.8780 C.3    404  EDO404      0.0000
      2 O1         61.6560  -60.5760   -0.5480 O.3    404  EDO404      0.0000
      3 C2         63.9850  -60.1360   -0.0060 C.3    404  EDO404      0.0000
      4 O2         63.6910  -61.0330    1.1010 O.3    404  EDO404      0.0000
      5 H          62.5064  -58.6693   -0.6833 H      404  EDO404      0.0000
      6 H          63.0189  -59.8167   -1.9588 H      404  EDO404      0.0000
      7 H          61.8205  -60.9504    0.3093 H      404  EDO404      0.0000
      8 H          64.4781  -59.2242    0.3936 H      404  EDO404      0.0000
      9 H          64.7392  -60.6312   -0.6554 H      404  EDO404      0.0000
     10 H          64.5075  -61.2474    1.5323 H      404  EDO404      0.0000
@<TRIPOS>BOND
     1     1     2    1
     2     1     3    1
     3     1     5    1
     4     1     6    1
     5     2     7    1
     6     3     4    1
     7     3     8    1
     8     3     9    1
     9     4    10    1

