@<TRIPOS>MOLECULE
EDO_3_A_404
 10 9 0 0 0
SMALL
NO_CHARGES

@<TRIPOS>ATOM
      1 C1         95.7610  -46.4130   -0.8780 C.3    404  EDO404      0.0000
      2 O1         97.0640  -46.9670   -0.5480 O.3    404  EDO404      0.0000
      3 C2         95.5190  -45.1710   -0.0060 C.3    404  EDO404      0.0000
      4 O2         96.4420  -44.9760    1.1010 O.3    404  EDO404      0.0000
      5 H          94.9811  -47.1787   -0.6812 H      404  EDO404      0.0000
      6 H          95.7190  -46.1568   -1.9572 H      404  EDO404      0.0000
      7 H          97.1973  -47.7378   -1.0829 H      404  EDO404      0.0000
      8 H          94.4859  -45.1914    0.3993 H      404  EDO404      0.0000
      9 H          95.5738  -44.2659   -0.6476 H      404  EDO404      0.0000
     10 H          97.1821  -45.5482    0.9346 H      404  EDO404      0.0000
@<TRIPOS>BOND
     1     1     2    1
     2     1     3    1
     3     1     5    1
     4     1     6    1
     5     2     7    1
     6     3     4    1
     7     3     8    1
     8     3     9    1
     9     4    10    1

