@<TRIPOS>MOLECULE
EDO_1_A_403
 10 9 0 0 0
SMALL
NO_CHARGES

@<TRIPOS>ATOM
      1 C1         66.1320  -36.4300   14.6620 C.3    403  EDO403      0.0000
      2 O1         67.3600  -37.0930   14.3450 O.3    403  EDO403      0.0000
      3 C2         66.1050  -36.0040   16.1140 C.3    403  EDO403      0.0000
      4 O2         65.7990  -37.1370   16.9390 O.3    403  EDO403      0.0000
      5 H          65.2713  -37.0915   14.4281 H      403  EDO403      0.0000
      6 H          66.0368  -35.5332   14.0129 H      403  EDO403      0.0000
      7 H          67.3385  -37.3356   13.4289 H      403  EDO403      0.0000
      8 H          65.3177  -35.2376   16.2725 H      403  EDO403      0.0000
      9 H          67.0693  -35.5506   16.4247 H      403  EDO403      0.0000
     10 H          66.4876  -37.7744   16.7952 H      403  EDO403      0.0000
@<TRIPOS>BOND
     1     1     2    1
     2     1     3    1
     3     1     5    1
     4     1     6    1
     5     2     7    1
     6     3     4    1
     7     3     8    1
     8     3     9    1
     9     4    10    1

