@<TRIPOS>MOLECULE
EDO_3_A_408
 10 9 0 0 0
SMALL
NO_CHARGES

@<TRIPOS>ATOM
      1 C1         78.8490   -8.0940   18.8460 C.3    408  EDO408      0.0000
      2 O1         79.2000   -8.5710   17.5230 O.3    408  EDO408      0.0000
      3 C2         79.9460   -7.2760   19.5220 C.3    408  EDO408      0.0000
      4 O2         79.5180   -6.9450   20.8550 O.3    408  EDO408      0.0000
      5 H          78.6017   -8.9712   19.4820 H      408  EDO408      0.0000
      6 H          77.9246   -7.4819   18.7720 H      408  EDO408      0.0000
      7 H          78.4666   -9.0688   17.1869 H      408  EDO408      0.0000
      8 H          80.1474   -6.3471   18.9484 H      408  EDO408      0.0000
      9 H          80.8890   -7.8604   19.5681 H      408  EDO408      0.0000
     10 H          80.2077   -6.4430   21.2684 H      408  EDO408      0.0000
@<TRIPOS>BOND
     1     1     2    1
     2     1     3    1
     3     1     5    1
     4     1     6    1
     5     2     7    1
     6     3     4    1
     7     3     8    1
     8     3     9    1
     9     4    10    1

