@<TRIPOS>MOLECULE
EDO_3_A_405
 10 9 0 0 0
SMALL
NO_CHARGES

@<TRIPOS>ATOM
      1 C1         92.1360  -32.3650    0.0340 C.3    405  EDO405      0.0000
      2 O1         93.2200  -32.4240   -0.9110 O.3    405  EDO405      0.0000
      3 C2         92.3570  -31.3950    1.1900 C.3    405  EDO405      0.0000
      4 O2         92.7870  -30.1060    0.6930 O.3    405  EDO405      0.0000
      5 H          91.9511  -33.3845    0.4344 H      405  EDO405      0.0000
      6 H          91.2123  -32.0672   -0.5080 H      405  EDO405      0.0000
      7 H          92.9286  -32.9113   -1.6706 H      405  EDO405      0.0000
      8 H          93.1352  -31.7998    1.8717 H      405  EDO405      0.0000
      9 H          91.4259  -31.2744    1.7826 H      405  EDO405      0.0000
     10 H          93.0782  -29.5858    1.4305 H      405  EDO405      0.0000
@<TRIPOS>BOND
     1     1     2    1
     2     1     3    1
     3     1     5    1
     4     1     6    1
     5     2     7    1
     6     3     4    1
     7     3     8    1
     8     3     9    1
     9     4    10    1

