EDO_2_A_407
  -ISIS-            3D

 10  9  0  0  0  0  0  0  0  0  1 V2000
   85.0430  -73.0730   36.2730 C   0  0  0  0  0
   85.8490  -71.9170   36.0350 O   0  0  0  0  0
   84.2610  -73.3760   35.0030 C   0  0  0  0  0
   84.0300  -74.7870   34.8970 O   0  0  0  0  0
   84.3603  -72.9009   37.1310 H   0  0  0  0  0
   85.7061  -73.9255   36.5325 H   0  0  0  0  0
   86.3644  -71.7513   36.8133 H   0  0  0  0  0
   84.8352  -73.0456   34.1110 H   0  0  0  0  0
   83.2952  -72.8287   34.9964 H   0  0  0  0  0
   83.5775  -74.9511   34.0802 H   0  0  0  0  0
  1  2  1  0  0  0
  1  3  1  0  0  0
  1  5  1  0  0  0
  1  6  1  0  0  0
  2  7  1  0  0  0
  3  4  1  0  0  0
  3  8  1  0  0  0
  3  9  1  0  0  0
  4 10  1  0  0  0
M  END
$$$$
