@<TRIPOS>MOLECULE
EDO_1_A_410
 10 9 0 0 0
SMALL
NO_CHARGES

@<TRIPOS>ATOM
      1 C1         54.4910  -84.3720   34.9660 C.3    410  EDO410      0.0000
      2 O1         55.2490  -85.1220   36.0220 O.3    410  EDO410      0.0000
      3 C2         53.8570  -83.2300   35.6530 C.3    410  EDO410      0.0000
      4 O2         54.7250  -83.4760   36.8100 O.3    410  EDO410      0.0000
      5 H          53.7415  -85.0393   34.4926 H      410  EDO410      0.0000
      6 H          55.1950  -84.0290   34.1778 H      410  EDO410      0.0000
      7 H          55.8915  -85.6667   35.5821 H      410  EDO410      0.0000
      8 H          52.7872  -83.3760   35.9055 H      410  EDO410      0.0000
      9 H          54.0629  -82.2413   35.1983 H      410  EDO410      0.0000
     10 H          54.1929  -83.8134   37.5220 H      410  EDO410      0.0000
@<TRIPOS>BOND
     1     1     2    1
     2     1     3    1
     3     1     5    1
     4     1     6    1
     5     2     7    1
     6     3     4    1
     7     3     8    1
     8     3     9    1
     9     4    10    1

