@<TRIPOS>MOLECULE
EDO_1_B_403
 10 9 0 0 0
SMALL
NO_CHARGES

@<TRIPOS>ATOM
      1 C1         31.9790  -63.5690  -26.9480 C.3    403  EDO403      0.0000
      2 O1         31.5750  -64.9400  -26.8420 O.3    403  EDO403      0.0000
      3 C2         31.9860  -63.1500  -28.4080 C.3    403  EDO403      0.0000
      4 O2         32.9960  -63.9050  -29.1130 O.3    403  EDO403      0.0000
      5 H          32.9817  -63.4369  -26.4903 H      403  EDO403      0.0000
      6 H          31.2687  -62.9430  -26.3694 H      403  EDO403      0.0000
      7 H          32.1355  -65.4287  -27.4336 H      403  EDO403      0.0000
      8 H          32.2111  -62.0659  -28.4936 H      403  EDO403      0.0000
      9 H          30.9925  -63.3245  -28.8723 H      403  EDO403      0.0000
     10 H          32.9935  -63.6250  -30.0186 H      403  EDO403      0.0000
@<TRIPOS>BOND
     1     1     2    1
     2     1     3    1
     3     1     5    1
     4     1     6    1
     5     2     7    1
     6     3     4    1
     7     3     8    1
     8     3     9    1
     9     4    10    1

