@<TRIPOS>MOLECULE
EDO_3_A_407
 10 9 0 0 0
SMALL
NO_CHARGES

@<TRIPOS>ATOM
      1 C1         96.1930  -20.4650   36.2730 C.3    407  EDO407      0.0000
      2 O1         94.7890  -20.3450   36.0350 O.3    407  EDO407      0.0000
      3 C2         96.8470  -20.9910   35.0030 C.3    407  EDO407      0.0000
      4 O2         98.1840  -20.4850   34.8970 O.3    407  EDO407      0.0000
      5 H          96.3697  -21.1533   37.1246 H      407  EDO407      0.0000
      6 H          96.6067  -19.4742   36.5572 H      407  EDO407      0.0000
      7 H          94.6188  -19.4860   35.6712 H      407  EDO407      0.0000
      8 H          96.2776  -20.6630   34.1073 H      407  EDO407      0.0000
      9 H          96.8563  -22.1013   34.9995 H      407  EDO407      0.0000
     10 H          98.5856  -20.8669   34.1278 H      407  EDO407      0.0000
@<TRIPOS>BOND
     1     1     2    1
     2     1     3    1
     3     1     5    1
     4     1     6    1
     5     2     7    1
     6     3     4    1
     7     3     8    1
     8     3     9    1
     9     4    10    1

