@<TRIPOS>MOLECULE
EDO_1_A_405
 10 9 0 0 0
SMALL
NO_CHARGES

@<TRIPOS>ATOM
      1 C1         57.3930  -34.6770    0.0340 C.3    405  EDO405      0.0000
      2 O1         56.9020  -33.7090   -0.9110 O.3    405  EDO405      0.0000
      3 C2         56.4420  -34.9700    1.1900 C.3    405  EDO405      0.0000
      4 O2         55.1110  -35.2420    0.6930 O.3    405  EDO405      0.0000
      5 H          58.3781  -34.3460    0.4265 H      405  EDO405      0.0000
      6 H          57.5856  -35.6198   -0.5205 H      405  EDO405      0.0000
      7 H          57.0931  -32.8425   -0.5766 H      405  EDO405      0.0000
      8 H          56.3950  -34.0994    1.8773 H      405  EDO405      0.0000
      9 H          56.7948  -35.8384    1.7832 H      405  EDO405      0.0000
     10 H          54.9930  -34.6974   -0.0773 H      405  EDO405      0.0000
@<TRIPOS>BOND
     1     1     2    1
     2     1     3    1
     3     1     5    1
     4     1     6    1
     5     2     7    1
     6     3     4    1
     7     3     8    1
     8     3     9    1
     9     4    10    1

