EDO_2_A_404
  -ISIS-            3D

 10  9  0  0  0  0  0  0  0  0  1 V2000
   62.7880  -59.7250   -0.8780 C   0  0  0  0  0
   61.6560  -60.5760   -0.5480 O   0  0  0  0  0
   63.9850  -60.1360   -0.0060 C   0  0  0  0  0
   63.6910  -61.0330    1.1010 O   0  0  0  0  0
   62.5064  -58.6693   -0.6833 H   0  0  0  0  0
   63.0189  -59.8167   -1.9588 H   0  0  0  0  0
   61.8205  -60.9504    0.3093 H   0  0  0  0  0
   64.4781  -59.2242    0.3936 H   0  0  0  0  0
   64.7392  -60.6312   -0.6554 H   0  0  0  0  0
   64.5075  -61.2474    1.5323 H   0  0  0  0  0
  1  2  1  0  0  0
  1  3  1  0  0  0
  1  5  1  0  0  0
  1  6  1  0  0  0
  2  7  1  0  0  0
  3  4  1  0  0  0
  3  8  1  0  0  0
  3  9  1  0  0  0
  4 10  1  0  0  0
M  END
$$$$
