@<TRIPOS>MOLECULE
EDO_2_A_408
 10 9 0 0 0
SMALL
NO_CHARGES

@<TRIPOS>ATOM
      1 C1        104.4290  -64.2380   18.8460 C.3    408  EDO408      0.0000
      2 O1        103.8400  -64.3040   17.5230 O.3    408  EDO408      0.0000
      3 C2        104.5890  -65.5970   19.5220 C.3    408  EDO408      0.0000
      4 O2        105.0890  -65.3920   20.8550 O.3    408  EDO408      0.0000
      5 H         103.7929  -63.5852   19.4819 H      408  EDO408      0.0000
      6 H         105.4212  -63.7433   18.7717 H      408  EDO408      0.0000
      7 H         103.7749  -63.4200   17.1869 H      408  EDO408      0.0000
      8 H         105.2931  -66.2357   18.9486 H      408  EDO408      0.0000
      9 H         103.6115  -66.1216   19.5676 H      408  EDO408      0.0000
     10 H         105.1776  -66.2403   21.2689 H      408  EDO408      0.0000
@<TRIPOS>BOND
     1     1     2    1
     2     1     3    1
     3     1     5    1
     4     1     6    1
     5     2     7    1
     6     3     4    1
     7     3     8    1
     8     3     9    1
     9     4    10    1

