@<TRIPOS>MOLECULE
EDO_1_A_404
 10 9 0 0 0
SMALL
NO_CHARGES

@<TRIPOS>ATOM
      1 C1         67.7460  -24.5140   -0.8780 C.3    404  EDO404      0.0000
      2 O1         67.5740  -23.1080   -0.5480 O.3    404  EDO404      0.0000
      3 C2         66.7910  -25.3440   -0.0060 C.3    404  EDO404      0.0000
      4 O2         66.1610  -24.6420    1.1010 O.3    404  EDO404      0.0000
      5 H          68.8010  -24.7975   -0.6820 H      404  EDO404      0.0000
      6 H          67.5522  -24.6685   -1.9589 H      404  EDO404      0.0000
      7 H          67.1779  -23.0638    0.3142 H      404  EDO404      0.0000
      8 H          67.3337  -26.2275    0.3930 H      404  EDO404      0.0000
      9 H          65.9850  -25.7491   -0.6555 H      404  EDO404      0.0000
     10 H          65.5749  -25.2453    1.5383 H      404  EDO404      0.0000
@<TRIPOS>BOND
     1     1     2    1
     2     1     3    1
     3     1     5    1
     4     1     6    1
     5     2     7    1
     6     3     4    1
     7     3     8    1
     8     3     9    1
     9     4    10    1

