@<TRIPOS>MOLECULE
EDO_3_A_410
 10 9 0 0 0
SMALL
NO_CHARGES

@<TRIPOS>ATOM
      1 C1         50.5490   -5.0040   34.9660 C.3    410  EDO410      0.0000
      2 O1         49.5210   -5.2870   36.0220 O.3    410  EDO410      0.0000
      3 C2         51.8560   -5.0260   35.6530 C.3    410  EDO410      0.0000
      4 O2         51.2080   -5.6550   36.8100 O.3    410  EDO410      0.0000
      5 H          50.3435   -4.0160   34.5054 H      410  EDO410      0.0000
      6 H          50.4892   -5.7713   34.1649 H      410  EDO410      0.0000
      7 H          49.2603   -6.1977   35.9397 H      410  EDO410      0.0000
      8 H          52.2515   -4.0232   35.9126 H      410  EDO410      0.0000
      9 H          52.6141   -5.6919   35.1956 H      410  EDO410      0.0000
     10 H          51.7967   -5.5736   37.5515 H      410  EDO410      0.0000
@<TRIPOS>BOND
     1     1     2    1
     2     1     3    1
     3     1     5    1
     4     1     6    1
     5     2     7    1
     6     3     4    1
     7     3     8    1
     8     3     9    1
     9     4    10    1

