@<TRIPOS>MOLECULE
EDO_3_A_406
 10 9 0 0 0
SMALL
NO_CHARGES

@<TRIPOS>ATOM
      1 C1         80.7560  -18.2210    9.2860 C.3    406  EDO406      0.0000
      2 O1         81.9150  -18.9570    8.8510 O.3    406  EDO406      0.0000
      3 C2         80.7260  -18.1030   10.8080 C.3    406  EDO406      0.0000
      4 O2         80.6230  -19.4270   11.3790 O.3    406  EDO406      0.0000
      5 H          79.8366  -18.7271    8.9221 H      406  EDO406      0.0000
      6 H          80.7749  -17.2078    8.8312 H      406  EDO406      0.0000
      7 H          81.8972  -19.0037    7.9040 H      406  EDO406      0.0000
      8 H          79.8555  -17.4996   11.1381 H      406  EDO406      0.0000
      9 H          81.6416  -17.6025   11.1866 H      406  EDO406      0.0000
     10 H          81.3045  -19.9458   10.9683 H      406  EDO406      0.0000
@<TRIPOS>BOND
     1     1     2    1
     2     1     3    1
     3     1     5    1
     4     1     6    1
     5     2     7    1
     6     3     4    1
     7     3     8    1
     8     3     9    1
     9     4    10    1

