@<TRIPOS>MOLECULE
FMT_1_A_409
 3 2 0 0 0
SMALL
NO_CHARGES

@<TRIPOS>ATOM
      1 C          77.7470  -76.5980   31.6380 C.2    409  FMT409      0.0000
      2 O1         76.7340  -77.1920   32.1560 O.2    409  FMT409      0.0000
      3 O2         77.8610  -75.5730   32.4240 O.2    409  FMT409     -0.5000
@<TRIPOS>BOND
     1     1     2   ar
     2     1     3   ar

