@<TRIPOS>MOLECULE
FMT_2_B_406
 3 2 0 0 0
SMALL
NO_CHARGES

@<TRIPOS>ATOM
      1 C         115.1090  -67.2110  -31.7990 C.2    406  FMT406      0.0000
      2 O1        114.8800  -66.0560  -31.4170 O.2    406  FMT406      0.0000
      3 O2        114.3720  -67.8710  -32.5460 O.2    406  FMT406     -0.5000
@<TRIPOS>BOND
     1     1     2   ar
     2     1     3   ar

