@<TRIPOS>MOLECULE
FMT_3_B_405
 3 2 0 0 0
SMALL
NO_CHARGES

@<TRIPOS>ATOM
      1 C          72.2810   -2.4890  -24.4660 C.2    405  FMT405      0.0000
      2 O1         71.9520   -2.8830  -23.3420 O.2    405  FMT405      0.0000
      3 O2         72.3350   -3.2120  -25.4690 O.2    405  FMT405     -0.5000
@<TRIPOS>BOND
     1     1     2   ar
     2     1     3   ar

