@<TRIPOS>MOLECULE
FMT_2_B_404
 3 2 0 0 0
SMALL
NO_CHARGES

@<TRIPOS>ATOM
      1 C          98.4130  -71.7360  -31.3980 C.2    404  FMT404      0.0000
      2 O1         99.2460  -70.9570  -30.8270 O.2    404  FMT404      0.0000
      3 O2         98.1900  -72.9770  -31.1960 O.2    404  FMT404     -0.5000
@<TRIPOS>BOND
     1     1     2   ar
     2     1     3   ar

