@<TRIPOS>MOLECULE
FMT_3_B_404
 3 2 0 0 0
SMALL
NO_CHARGES

@<TRIPOS>ATOM
      1 C          88.3510   -9.5550  -31.3980 C.2    404  FMT404      0.0000
      2 O1         87.2590   -9.2230  -30.8270 O.2    404  FMT404      0.0000
      3 O2         89.5360   -9.1270  -31.1960 O.2    404  FMT404     -0.5000
@<TRIPOS>BOND
     1     1     2   ar
     2     1     3   ar

