@<TRIPOS>MOLECULE
FMT_1_B_406
 3 2 0 0 0
SMALL
NO_CHARGES

@<TRIPOS>ATOM
      1 C          35.1020  -66.0820  -31.7990 C.2    406  FMT406      0.0000
      2 O1         36.2170  -66.4610  -31.4170 O.2    406  FMT406      0.0000
      3 O2         34.8990  -65.1140  -32.5460 O.2    406  FMT406     -0.5000
@<TRIPOS>BOND
     1     1     2   ar
     2     1     3   ar

