@<TRIPOS>MOLECULE
CLW_1_A_201
 14 15 0 0 0
SMALL
NO_CHARGES

@<TRIPOS>ATOM
      1 C1        -48.6050  -29.1050    2.0070 C.ar   201  CLW201      0.0000
      2 C2        -49.4920  -28.8300    3.0210 C.ar   201  CLW201      0.0000
      3 C3        -49.0160  -28.8750    4.3090 C.ar   201  CLW201      0.0000
      4 C4        -47.6640  -29.2180    4.5350 C.ar   201  CLW201      0.0000
      5 C5        -46.7940  -29.5340    3.5240 C.ar   201  CLW201      0.0000
      6 C6        -47.3310  -29.4530    2.2810 C.ar   201  CLW201      0.0000
      7 CL1       -46.3150  -29.7420    0.9500 Cl     201  CLW201      0.0000
      8 O1        -49.6430  -28.6730    5.6020 O.3    201  CLW201      0.0000
      9 C7        -48.6390  -28.9010    6.6230 C.ar   201  CLW201      0.0000
     10 N1        -47.4360  -29.2210    5.9360 N.ar   201  CLW201      0.0000
     11 O2        -48.7230  -28.8390    7.8330 O.2    201  CLW201      0.0000
     12 H         -48.9593  -29.0431    0.9636 H      201  CLW201      0.0000
     13 H         -50.5414  -28.5748    2.8151 H      201  CLW201      0.0000
     14 H         -45.7477  -29.8164    3.7191 H      201  CLW201      0.0000
@<TRIPOS>BOND
     1     1     2   ar
     2     1     6   ar
     3     1    12    1
     4     2     3   ar
     5     2    13    1
     6     3     4   ar
     7     3     8   ar
     8     4     5   ar
     9     4    10   ar
    10     5     6   ar
    11     5    14    1
    12     6     7    1
    13     8     9   ar
    14     9    10   ar
    15     9    11    2

