@<TRIPOS>MOLECULE
HLR_1_A_201
 16 17 0 0 0
SMALL
NO_CHARGES

@<TRIPOS>ATOM
      1 C1        -49.6200  -29.1100    5.9710 C.ar   201  HLR201      0.0000
      2 C2        -48.2710  -29.0390    6.3330 C.ar   201  HLR201      0.0000
      3 C3        -47.3280  -28.9650    5.3160 C.ar   201  HLR201      0.0000
      4 C4        -47.7320  -28.9650    3.9730 C.ar   201  HLR201      0.0000
      5 C5        -49.0590  -29.0320    3.6230 C.ar   201  HLR201      0.0000
      6 C6        -50.0150  -29.1060    4.6520 C.ar   201  HLR201      0.0000
      7 C         -50.8180  -29.2030    6.7360 C.ar   201  HLR201      0.0000
      8 N1        -51.8160  -29.2690    5.8520 N.ar   201  HLR201      0.0000
      9 N2        -50.8540  -29.2310    8.1710 N.3    201  HLR201      0.0000
     10 O7        -51.3380  -29.1920    4.6200 O.3    201  HLR201      0.0000
     11 H         -47.9600  -29.0424    7.3898 H      201  HLR201      0.0000
     12 H         -46.2547  -28.9075    5.5650 H      201  HLR201      0.0000
     13 H         -46.9656  -28.9084    3.1810 H      201  HLR201      0.0000
     14 H         -49.3747  -29.0310    2.5694 H      201  HLR201      0.0000
     15 H         -49.9503  -29.1701    8.6558 H      201  HLR201      0.0000
     16 H         -51.7906  -29.3102    8.5866 H      201  HLR201      0.0000
@<TRIPOS>BOND
     1     1     2   ar
     2     1     6   ar
     3     1     7   ar
     4     2     3   ar
     5     2    11    1
     6     3     4   ar
     7     3    12    1
     8     4     5   ar
     9     4    13    1
    10     5     6   ar
    11     5    14    1
    12     6    10   ar
    13     7     8   ar
    14     7     9    1
    15     8    10   ar
    16     9    15    1
    17     9    16    1

