DMS_1_A_402
  -ISIS-            3D

 10  9  0  0  0  0  0  0  0  0  1 V2000
    7.5480  -21.0390   29.2000 S   0  0  0  0  0
    8.2190  -20.3070   28.0800 O   0  0  0  0  0
    5.8790  -20.4420   29.2470 C   0  0  0  0  0
    7.1920  -22.6560   28.5730 C   0  0  0  0  0
    5.2808  -21.0501   29.9561 H   0  0  0  0  0
    5.4201  -20.4922   28.2381 H   0  0  0  0  0
    5.8770  -19.3877   29.5913 H   0  0  0  0  0
    6.5610  -23.2109   29.2971 H   0  0  0  0  0
    8.1418  -23.2106   28.4295 H   0  0  0  0  0
    6.6644  -22.5879   27.5993 H   0  0  0  0  0
  1  2  2  0  0  0
  1  3  1  0  0  0
  1  4  1  0  0  0
  3  5  1  0  0  0
  3  6  1  0  0  0
  3  7  1  0  0  0
  4  8  1  0  0  0
  4  9  1  0  0  0
  4 10  1  0  0  0
M  END
$$$$
