DMS_2_A_401
  -ISIS-            3D

 10  9  0  0  0  0  0  0  0  0  1 V2000
   -7.0770  -27.9160  -21.5860 S   0  0  0  0  0
   -6.3240  -27.1350  -20.5440 O   0  0  0  0  0
   -7.9430  -26.7210  -22.5510 C   0  0  0  0  0
   -5.8720  -28.3940  -22.7970 C   0  0  0  0  0
   -8.4047  -27.2109  -23.4325 H   0  0  0  0  0
   -7.2522  -25.9230  -22.8926 H   0  0  0  0  0
   -8.7452  -26.2638  -21.9363 H   0  0  0  0  0
   -6.3785  -28.8484  -23.6730 H   0  0  0  0  0
   -5.1839  -29.1427  -22.3538 H   0  0  0  0  0
   -5.2833  -27.5133  -23.1263 H   0  0  0  0  0
  1  2  2  0  0  0
  1  3  1  0  0  0
  1  4  1  0  0  0
  3  5  1  0  0  0
  3  6  1  0  0  0
  3  7  1  0  0  0
  4  8  1  0  0  0
  4  9  1  0  0  0
  4 10  1  0  0  0
M  END
$$$$
