@<TRIPOS>MOLECULE
DMS_1_A_402
 10 9 0 0 0
SMALL
NO_CHARGES

@<TRIPOS>ATOM
      1 S           7.5480  -21.0390   29.2000 S.o    402  DMS402      0.0000
      2 O           8.2190  -20.3070   28.0800 O.2    402  DMS402      0.0000
      3 C1          5.8790  -20.4420   29.2470 C.3    402  DMS402      0.0000
      4 C2          7.1920  -22.6560   28.5730 C.3    402  DMS402      0.0000
      5 H           5.2808  -21.0501   29.9561 H      402  DMS402      0.0000
      6 H           5.4201  -20.4922   28.2381 H      402  DMS402      0.0000
      7 H           5.8770  -19.3877   29.5913 H      402  DMS402      0.0000
      8 H           6.5610  -23.2109   29.2971 H      402  DMS402      0.0000
      9 H           8.1418  -23.2106   28.4295 H      402  DMS402      0.0000
     10 H           6.6644  -22.5879   27.5993 H      402  DMS402      0.0000
@<TRIPOS>BOND
     1     1     2    2
     2     1     3    1
     3     1     4    1
     4     3     5    1
     5     3     6    1
     6     3     7    1
     7     4     8    1
     8     4     9    1
     9     4    10    1

