@<TRIPOS>MOLECULE
SAM_1_A_302
 50 52 0 0 0
SMALL
NO_CHARGES

@<TRIPOS>ATOM
      1 N          87.6180  -19.9000   24.0150 N.3    302  SAM302      1.0000
      2 CA         88.8840  -19.2680   24.4940 C.3    302  SAM302      0.0000
      3 C          90.0750  -20.0710   23.9500 C.2    302  SAM302      0.0000
      4 O          89.9450  -20.7130   22.9010 O.co2  302  SAM302     -0.5000
      5 OXT        91.1750  -20.0980   24.5180 O.co2  302  SAM302     -0.5000
      6 CB         88.9240  -19.2120   26.0270 C.3    302  SAM302      0.0000
      7 CG         87.7070  -18.5340   26.6500 C.3    302  SAM302      0.0000
      8 SD         87.9090  -18.3520   28.4360 S.3    302  SAM302      0.0000
      9 CE         87.5810  -20.0140   28.9940 C.3    302  SAM302      0.0000
     10 C5'        86.3430  -17.5470   28.8420 C.3    302  SAM302      0.0000
     11 C4'        86.2360  -16.1370   28.3050 C.3    302  SAM302      0.0000
     12 O4'        84.9630  -15.5760   28.6840 O.3    302  SAM302      0.0000
     13 C3'        87.2820  -15.1450   28.8260 C.3    302  SAM302      0.0000
     14 O3'        88.1590  -14.7650   27.7730 O.3    302  SAM302      0.0000
     15 C2'        86.4620  -13.9430   29.3180 C.3    302  SAM302      0.0000
     16 O2'        87.0040  -12.7070   28.9110 O.3    302  SAM302      0.0000
     17 C1'        85.1210  -14.1830   28.6390 C.3    302  SAM302      0.0000
     18 N9         83.9850  -13.5350   29.2810 N.ar   302  SAM302      0.0000
     19 C8         83.5610  -13.6850   30.5750 C.ar   302  SAM302      0.0000
     20 N7         82.5090  -12.9620   30.8640 N.ar   302  SAM302      0.0000
     21 C5         82.2160  -12.2920   29.6860 C.ar   302  SAM302      0.0000
     22 C6         81.2050  -11.3710   29.3430 C.ar   302  SAM302      0.0000
     23 N6         80.2680  -10.9510   30.1880 N.pl3  302  SAM302      0.0000
     24 N1         81.1950  -10.8950   28.0750 N.ar   302  SAM302      0.0000
     25 C2         82.1420  -11.3230   27.2280 C.ar   302  SAM302      0.0000
     26 N3         83.1370  -12.1820   27.4380 N.ar   302  SAM302      0.0000
     27 C4         83.1210  -12.6390   28.7010 C.ar   302  SAM302      0.0000
     28 H          87.5083  -20.8334   24.4018 H      302  SAM302      0.0000
     29 H          87.6075  -19.9685   23.0015 H      302  SAM302      0.0000
     30 H          88.9497  -18.2322   24.0838 H      302  SAM302      0.0000
     31 H          89.8452  -18.6680   26.3412 H      302  SAM302      0.0000
     32 H          89.0152  -20.2484   26.4259 H      302  SAM302      0.0000
     33 H          86.7728  -19.1022   26.4494 H      302  SAM302      0.0000
     34 H          87.5889  -17.5256   26.1968 H      302  SAM302      0.0000
     35 H          87.4835  -20.0338   30.1011 H      302  SAM302      0.0000
     36 H          88.4163  -20.6943   28.7224 H      302  SAM302      0.0000
     37 H          86.6462  -20.4333   28.5640 H      302  SAM302      0.0000
     38 H          86.2445  -17.5385   29.9500 H      302  SAM302      0.0000
     39 H          85.5018  -18.1624   28.4536 H      302  SAM302      0.0000
     40 H          86.2719  -16.1598   27.1943 H      302  SAM302      0.0000
     41 H          87.8588  -15.5646   29.6774 H      302  SAM302      0.0000
     42 H          88.8692  -15.3913   27.7377 H      302  SAM302      0.0000
     43 H          86.3584  -13.9752   30.4220 H      302  SAM302      0.0000
     44 H          87.5819  -12.8663   28.1740 H      302  SAM302      0.0000
     45 H          85.1561  -13.8475   27.5801 H      302  SAM302      0.0000
     46 H          83.9912  -14.3205   31.3603 H      302  SAM302      0.0000
     47 H          82.0880  -10.9024   26.2091 H      302  SAM302      0.0000
     48 H          79.5933  -10.2799   29.8005 H      302  SAM302      0.0000
     49 H          80.2946  -11.3256   31.1449 H      302  SAM302      0.0000
     50 H          86.8109  -19.3442   24.2791 H      302  SAM302      0.0000
@<TRIPOS>BOND
     1     1     2    1
     2     1    28    1
     3     1    29    1
     4     2     3    1
     5     2     6    1
     6     2    30    1
     7     3     4   ar
     8     3     5   ar
     9     6     7    1
    10     6    31    1
    11     6    32    1
    12     7     8    1
    13     7    33    1
    14     7    34    1
    15     8     9    1
    16     8    10    1
    17     9    35    1
    18     9    36    1
    19     9    37    1
    20    10    11    1
    21    10    38    1
    22    10    39    1
    23    11    12    1
    24    11    13    1
    25    11    40    1
    26    12    17    1
    27    13    14    1
    28    13    15    1
    29    13    41    1
    30    14    42    1
    31    15    16    1
    32    15    17    1
    33    15    43    1
    34    16    44    1
    35    17    18    1
    36    17    45    1
    37    18    19   ar
    38    18    27   ar
    39    19    20   ar
    40    19    46    1
    41    20    21   ar
    42    21    22   ar
    43    21    27   ar
    44    22    23    1
    45    22    24   ar
    46    23    48    1
    47    23    49    1
    48    24    25   ar
    49    25    26   ar
    50    25    47    1
    51    26    27   ar
    52     1    50    1

