@<TRIPOS>MOLECULE
EDO_2_B_402
 10 9 0 0 0
SMALL
NO_CHARGES

@<TRIPOS>ATOM
      1 C1         65.7470   48.5500  -18.7240 C.3    402  EDO402      0.0000
      2 O1         64.9400   49.3490  -17.8520 O.3    402  EDO402      0.0000
      3 C2         64.9200   47.3820  -19.2500 C.3    402  EDO402      0.0000
      4 O2         64.3660   46.6590  -18.1450 O.3    402  EDO402      0.0000
      5 H          66.6365   48.1844  -18.1694 H      402  EDO402      0.0000
      6 H          66.1141   49.1798  -19.5601 H      402  EDO402      0.0000
      7 H          64.4224   48.7438  -17.3324 H      402  EDO402      0.0000
      8 H          65.5377   46.7100  -19.8825 H      402  EDO402      0.0000
      9 H          64.0892   47.7550  -19.8844 H      402  EDO402      0.0000
     10 H          64.9657   45.9636  -17.9089 H      402  EDO402      0.0000
@<TRIPOS>BOND
     1     1     2    1
     2     1     3    1
     3     1     5    1
     4     1     6    1
     5     2     7    1
     6     3     4    1
     7     3     8    1
     8     3     9    1
     9     4    10    1

