@<TRIPOS>MOLECULE
EDO_1_B_402
 10 9 0 0 0
SMALL
NO_CHARGES

@<TRIPOS>ATOM
      1 C1         21.7130   48.5500  -80.0350 C.3    402  EDO402      0.0000
      2 O1         22.5200   49.3490  -80.9070 O.3    402  EDO402      0.0000
      3 C2         22.5400   47.3820  -79.5090 C.3    402  EDO402      0.0000
      4 O2         23.0940   46.6590  -80.6140 O.3    402  EDO402      0.0000
      5 H          20.8375   48.1745  -80.6044 H      402  EDO402      0.0000
      6 H          21.3186   49.1658  -79.1994 H      402  EDO402      0.0000
      7 H          22.9196   50.0415  -80.3973 H      402  EDO402      0.0000
      8 H          21.9129   46.6972  -78.9022 H      402  EDO402      0.0000
      9 H          23.3625   47.7435  -78.8568 H      402  EDO402      0.0000
     10 H          23.3712   47.3085  -81.2507 H      402  EDO402      0.0000
@<TRIPOS>BOND
     1     1     2    1
     2     1     3    1
     3     1     5    1
     4     1     6    1
     5     2     7    1
     6     3     4    1
     7     3     8    1
     8     3     9    1
     9     4    10    1

