EDO_1_B_402
  -ISIS-            3D

 10  9  0  0  0  0  0  0  0  0  1 V2000
   21.7130   48.5500  -80.0350 C   0  0  0  0  0
   22.5200   49.3490  -80.9070 O   0  0  0  0  0
   22.5400   47.3820  -79.5090 C   0  0  0  0  0
   23.0940   46.6590  -80.6140 O   0  0  0  0  0
   20.8375   48.1745  -80.6044 H   0  0  0  0  0
   21.3186   49.1658  -79.1994 H   0  0  0  0  0
   22.9196   50.0415  -80.3973 H   0  0  0  0  0
   21.9129   46.6972  -78.9022 H   0  0  0  0  0
   23.3625   47.7435  -78.8568 H   0  0  0  0  0
   23.3712   47.3085  -81.2507 H   0  0  0  0  0
  1  2  1  0  0  0
  1  3  1  0  0  0
  1  5  1  0  0  0
  1  6  1  0  0  0
  2  7  1  0  0  0
  3  4  1  0  0  0
  3  8  1  0  0  0
  3  9  1  0  0  0
  4 10  1  0  0  0
M  END
$$$$
