@<TRIPOS>MOLECULE
2FX_1_A_201
 20 21 0 0 0
SMALL
NO_CHARGES

@<TRIPOS>ATOM
      1 O1        -43.3180  -31.3510    3.3940 O.co2  201  2FX201     -0.5000
      2 C2        -43.5540  -31.8370    2.4060 C.2    201  2FX201      0.0000
      3 O3        -44.0650  -32.9560    2.4020 O.co2  201  2FX201     -0.5000
      4 C4        -43.8120  -30.0820    0.6990 C.ar   201  2FX201      0.0000
      5 C5        -43.1740  -28.8550    0.5520 C.ar   201  2FX201      0.0000
      6 C6        -44.2160  -27.8770    0.2710 C.ar   201  2FX201      0.0000
      7 C7        -43.9540  -26.5350    0.0150 C.ar   201  2FX201      0.0000
      8 C8        -45.0310  -25.7360   -0.2490 C.ar   201  2FX201      0.0000
      9 C9        -46.2890  -26.2770   -0.3510 C.ar   201  2FX201      0.0000
     10 C10       -46.5850  -27.5740   -0.0610 C.ar   201  2FX201      0.0000
     11 C11       -45.5300  -28.3600    0.1910 C.ar   201  2FX201      0.0000
     12 S12       -45.4960  -30.0200    0.5360 S.3    201  2FX201      0.0000
     13 C13       -43.2040  -31.3760    1.0370 C.3    201  2FX201      0.0000
     14 H         -42.0973  -28.6517    0.6316 H      201  2FX201      0.0000
     15 H         -42.9289  -26.1312    0.0422 H      201  2FX201      0.0000
     16 H         -44.8817  -24.6565   -0.4229 H      201  2FX201      0.0000
     17 H         -47.1197  -25.6074   -0.6365 H      201  2FX201      0.0000
     18 H         -47.6172  -27.9589   -0.0737 H      201  2FX201      0.0000
     19 H         -43.4960  -32.1253    0.2654 H      201  2FX201      0.0000
     20 H         -42.0961  -31.2887    0.9585 H      201  2FX201      0.0000
@<TRIPOS>BOND
     1     1     2   ar
     2     2     3   ar
     3     2    13    1
     4     4     5   ar
     5     4    12   ar
     6     4    13    1
     7     5     6   ar
     8     5    14    1
     9     6     7   ar
    10     6    11   ar
    11     7     8   ar
    12     7    15    1
    13     8     9   ar
    14     8    16    1
    15     9    10   ar
    16     9    17    1
    17    10    11   ar
    18    10    18    1
    19    11    12   ar
    20    13    19    1
    21    13    20    1

