DMS_1_A_403
  -ISIS-            3D

 10  9  0  0  0  0  0  0  0  0  1 V2000
    2.4730  -18.7610    8.0600 S   0  0  0  0  0
    3.7110  -18.8230    8.9670 O   0  0  0  0  0
    1.1130  -18.3710    9.1560 C   0  0  0  0  0
    2.0190  -20.4390    7.7830 C   0  0  0  0  0
    0.1508  -18.4728    8.6136 H   0  0  0  0  0
    1.2168  -17.3236    9.5062 H   0  0  0  0  0
    1.1171  -19.0471   10.0355 H   0  0  0  0  0
    1.0325  -20.4864    7.2781 H   0  0  0  0  0
    1.9699  -20.9944    8.7420 H   0  0  0  0  0
    2.7753  -20.9198    7.1294 H   0  0  0  0  0
  1  2  2  0  0  0
  1  3  1  0  0  0
  1  4  1  0  0  0
  3  5  1  0  0  0
  3  6  1  0  0  0
  3  7  1  0  0  0
  4  8  1  0  0  0
  4  9  1  0  0  0
  4 10  1  0  0  0
M  END
$$$$
