DMS_2_A_401
  -ISIS-            3D

 10  9  0  0  0  0  0  0  0  0  1 V2000
   -6.9400  -28.0040  -21.6340 S   0  0  0  0  0
   -7.7630  -27.0580  -22.4030 O   0  0  0  0  0
   -5.6360  -28.5530  -22.7100 C   0  0  0  0  0
   -5.9650  -27.0190  -20.5440 C   0  0  0  0  0
   -4.9057  -29.1599  -22.1367 H   0  0  0  0  0
   -5.1183  -27.6837  -23.1651 H   0  0  0  0  0
   -6.0669  -29.1799  -23.5174 H   0  0  0  0  0
   -5.2231  -27.6567  -20.0213 H   0  0  0  0  0
   -6.6238  -26.5457  -19.7874 H   0  0  0  0  0
   -5.4351  -26.2240  -21.1078 H   0  0  0  0  0
  1  2  2  0  0  0
  1  3  1  0  0  0
  1  4  1  0  0  0
  3  5  1  0  0  0
  3  6  1  0  0  0
  3  7  1  0  0  0
  4  8  1  0  0  0
  4  9  1  0  0  0
  4 10  1  0  0  0
M  END
$$$$
