@<TRIPOS>MOLECULE
DMS_1_A_403
 10 9 0 0 0
SMALL
NO_CHARGES

@<TRIPOS>ATOM
      1 S           2.4730  -18.7610    8.0600 S.o    403  DMS403      0.0000
      2 O           3.7110  -18.8230    8.9670 O.2    403  DMS403      0.0000
      3 C1          1.1130  -18.3710    9.1560 C.3    403  DMS403      0.0000
      4 C2          2.0190  -20.4390    7.7830 C.3    403  DMS403      0.0000
      5 H           0.1508  -18.4728    8.6136 H      403  DMS403      0.0000
      6 H           1.2168  -17.3236    9.5062 H      403  DMS403      0.0000
      7 H           1.1171  -19.0471   10.0355 H      403  DMS403      0.0000
      8 H           1.0325  -20.4864    7.2781 H      403  DMS403      0.0000
      9 H           1.9699  -20.9944    8.7420 H      403  DMS403      0.0000
     10 H           2.7753  -20.9198    7.1294 H      403  DMS403      0.0000
@<TRIPOS>BOND
     1     1     2    2
     2     1     3    1
     3     1     4    1
     4     3     5    1
     5     3     6    1
     6     3     7    1
     7     4     8    1
     8     4     9    1
     9     4    10    1

