@<TRIPOS>MOLECULE
DMS_2_A_401
 10 9 0 0 0
SMALL
NO_CHARGES

@<TRIPOS>ATOM
      1 S          -6.9400  -28.0040  -21.6340 S.o    401  DMS401      0.0000
      2 O          -7.7630  -27.0580  -22.4030 O.2    401  DMS401      0.0000
      3 C1         -5.6360  -28.5530  -22.7100 C.3    401  DMS401      0.0000
      4 C2         -5.9650  -27.0190  -20.5440 C.3    401  DMS401      0.0000
      5 H          -4.9057  -29.1599  -22.1367 H      401  DMS401      0.0000
      6 H          -5.1183  -27.6837  -23.1651 H      401  DMS401      0.0000
      7 H          -6.0669  -29.1799  -23.5174 H      401  DMS401      0.0000
      8 H          -5.2231  -27.6567  -20.0213 H      401  DMS401      0.0000
      9 H          -6.6238  -26.5457  -19.7874 H      401  DMS401      0.0000
     10 H          -5.4351  -26.2240  -21.1078 H      401  DMS401      0.0000
@<TRIPOS>BOND
     1     1     2    2
     2     1     3    1
     3     1     4    1
     4     3     5    1
     5     3     6    1
     6     3     7    1
     7     4     8    1
     8     4     9    1
     9     4    10    1

