@<TRIPOS>MOLECULE
DMS_1_A_402
 10 9 0 0 0
SMALL
NO_CHARGES

@<TRIPOS>ATOM
      1 S           6.1990   -1.0370   -6.3140 S.o    402  DMS402      0.0000
      2 O           7.1740   -0.9150   -7.4180 O.2    402  DMS402      0.0000
      3 C1          7.0900   -0.8220   -4.7830 C.3    402  DMS402      0.0000
      4 C2          5.8250   -2.7610   -6.1420 C.3    402  DMS402      0.0000
      5 H           6.4183   -1.0293   -3.9250 H      402  DMS402      0.0000
      6 H           7.4493    0.2251   -4.7128 H      402  DMS402      0.0000
      7 H           7.9618   -1.5070   -4.7454 H      402  DMS402      0.0000
      8 H           5.1877   -2.9208   -5.2483 H      402  DMS402      0.0000
      9 H           6.7591   -3.3507   -6.0401 H      402  DMS402      0.0000
     10 H           5.2749   -3.1086   -7.0403 H      402  DMS402      0.0000
@<TRIPOS>BOND
     1     1     2    2
     2     1     3    1
     3     1     4    1
     4     3     5    1
     5     3     6    1
     6     3     7    1
     7     4     8    1
     8     4     9    1
     9     4    10    1

