DMS_2_A_402
  -ISIS-            3D

 10  9  0  0  0  0  0  0  0  0  1 V2000
   -6.1990   -1.0370    6.3140 S   0  0  0  0  0
   -7.1740   -0.9150    7.4180 O   0  0  0  0  0
   -7.0900   -0.8220    4.7830 C   0  0  0  0  0
   -5.8250   -2.7610    6.1420 C   0  0  0  0  0
   -6.4183   -1.0293    3.9250 H   0  0  0  0  0
   -7.4493    0.2251    4.7128 H   0  0  0  0  0
   -7.9618   -1.5070    4.7454 H   0  0  0  0  0
   -5.1877   -2.9208    5.2483 H   0  0  0  0  0
   -6.7591   -3.3507    6.0401 H   0  0  0  0  0
   -5.2749   -3.1086    7.0403 H   0  0  0  0  0
  1  2  2  0  0  0
  1  3  1  0  0  0
  1  4  1  0  0  0
  3  5  1  0  0  0
  3  6  1  0  0  0
  3  7  1  0  0  0
  4  8  1  0  0  0
  4  9  1  0  0  0
  4 10  1  0  0  0
M  END
$$$$
