@<TRIPOS>MOLECULE
DMS_1_A_502
 10 9 0 0 0
SMALL
NO_CHARGES

@<TRIPOS>ATOM
      1 S          -4.2170   14.3220    0.1670 S.o    502  DMS502      0.0000
      2 O          -4.4690   15.1870   -0.9830 O.2    502  DMS502      0.0000
      3 C1         -3.7910   15.4890    1.4190 C.3    502  DMS502      0.0000
      4 C2         -5.8120   13.9650    0.8280 C.3    502  DMS502      0.0000
      5 H          -3.7485   14.9869    2.4073 H      502  DMS502      0.0000
      6 H          -4.5287   16.3168    1.4583 H      502  DMS502      0.0000
      7 H          -2.7903   15.9140    1.1979 H      502  DMS502      0.0000
      8 H          -5.7127   13.4978    1.8292 H      502  DMS502      0.0000
      9 H          -6.3337   13.2521    0.1569 H      502  DMS502      0.0000
     10 H          -6.4224   14.8878    0.9100 H      502  DMS502      0.0000
@<TRIPOS>BOND
     1     1     2    2
     2     1     3    1
     3     1     4    1
     4     3     5    1
     5     3     6    1
     6     3     7    1
     7     4     8    1
     8     4     9    1
     9     4    10    1

