@<TRIPOS>MOLECULE
PHB_1_A_201
 15 15 0 0 0
SMALL
NO_CHARGES

@<TRIPOS>ATOM
      1 C1'       -46.1810  -29.4580    2.9610 C.2    201  PHB201      0.0000
      2 O1'       -45.9590  -29.5730    1.7280 O.co2  201  PHB201     -0.5000
      3 O2'       -45.2350  -29.5510    3.7670 O.co2  201  PHB201     -0.5000
      4 C1        -47.5850  -29.2900    3.5320 C.ar   201  PHB201      0.0000
      5 C2        -47.7810  -29.3920    4.9090 C.ar   201  PHB201      0.0000
      6 C3        -49.0520  -29.2860    5.4570 C.ar   201  PHB201      0.0000
      7 C4        -50.1310  -29.0900    4.6270 C.ar   201  PHB201      0.0000
      8 C5        -49.9280  -29.0060    3.2630 C.ar   201  PHB201      0.0000
      9 C6        -48.6660  -29.1150    2.6990 C.ar   201  PHB201      0.0000
     10 O4        -51.4310  -29.0050    5.1190 O.3    201  PHB201      0.0000
     11 H         -46.9259  -29.5594    5.5854 H      201  PHB201      0.0000
     12 H         -49.1999  -29.3648    6.5467 H      201  PHB201      0.0000
     13 H         -50.7873  -28.8572    2.5863 H      201  PHB201      0.0000
     14 H         -48.5417  -29.0589    1.6048 H      201  PHB201      0.0000
     15 H         -52.0843  -28.8785    4.4460 H      201  PHB201      0.0000
@<TRIPOS>BOND
     1     1     2   ar
     2     1     3   ar
     3     1     4    1
     4     4     5   ar
     5     4     9   ar
     6     5     6   ar
     7     5    11    1
     8     6     7   ar
     9     6    12    1
    10     7     8   ar
    11     7    10    1
    12     8     9   ar
    13     8    13    1
    14     9    14    1
    15    10    15    1

