PHB_1_A_201
  -ISIS-            3D

 15 15  0  0  0  0  0  0  0  0  1 V2000
  -46.1810  -29.4580    2.9610 C   0  0  0  0  0
  -45.9590  -29.5730    1.7280 O   0  0  0  0  0
  -45.2350  -29.5510    3.7670 O   0  0  0  0  0
  -47.5850  -29.2900    3.5320 C   0  0  0  0  0
  -47.7810  -29.3920    4.9090 C   0  0  0  0  0
  -49.0520  -29.2860    5.4570 C   0  0  0  0  0
  -50.1310  -29.0900    4.6270 C   0  0  0  0  0
  -49.9280  -29.0060    3.2630 C   0  0  0  0  0
  -48.6660  -29.1150    2.6990 C   0  0  0  0  0
  -51.4310  -29.0050    5.1190 O   0  0  0  0  0
  -46.9259  -29.5594    5.5854 H   0  0  0  0  0
  -49.1999  -29.3648    6.5467 H   0  0  0  0  0
  -50.7873  -28.8572    2.5863 H   0  0  0  0  0
  -48.5417  -29.0589    1.6048 H   0  0  0  0  0
  -52.0843  -28.8785    4.4460 H   0  0  0  0  0
  1  2  2  0  0  0
  1  3  2  0  0  0
  1  4  1  0  0  0
  4  5  2  0  0  0
  4  9  1  0  0  0
  5  6  1  0  0  0
  5 11  1  0  0  0
  6  7  2  0  0  0
  6 12  1  0  0  0
  7  8  1  0  0  0
  7 10  1  0  0  0
  8  9  2  0  0  0
  8 13  1  0  0  0
  9 14  1  0  0  0
 10 15  1  0  0  0
M  END
$$$$
