@<TRIPOS>MOLECULE
EDO_1_A_401
 10 9 0 0 0
SMALL
NO_CHARGES

@<TRIPOS>ATOM
      1 C1         16.4090  -35.8240  -47.3890 C.3    401  EDO401      0.0000
      2 O1         17.4940  -35.5170  -46.5060 O.3    401  EDO401      0.0000
      3 C2         15.1410  -35.2210  -46.8070 C.3    401  EDO401      0.0000
      4 O2         14.0890  -36.1860  -46.8070 O.3    401  EDO401      0.0000
      5 H          16.3285  -36.9277  -47.4679 H      401  EDO401      0.0000
      6 H          16.6143  -35.4388  -48.4097 H      401  EDO401      0.0000
      7 H          17.8317  -34.6602  -46.7312 H      401  EDO401      0.0000
      8 H          14.8227  -34.3421  -47.4049 H      401  EDO401      0.0000
      9 H          15.3001  -34.8578  -45.7695 H      401  EDO401      0.0000
     10 H          14.2440  -36.7939  -46.0956 H      401  EDO401      0.0000
@<TRIPOS>BOND
     1     1     2    1
     2     1     3    1
     3     1     5    1
     4     1     6    1
     5     2     7    1
     6     3     4    1
     7     3     8    1
     8     3     9    1
     9     4    10    1

