EDO_2_A_403
  -ISIS-            3D

 10  9  0  0  0  0  0  0  0  0  1 V2000
    8.9320  -36.3050   -7.4380 C   0  0  0  0  0
    9.3450  -35.0960   -6.7930 O   0  0  0  0  0
    7.6500  -36.0420   -8.2100 C   0  0  0  0  0
    6.6440  -35.6190   -7.2840 O   0  0  0  0  0
    8.7704  -37.0882   -6.6685 H   0  0  0  0  0
    9.7329  -36.6721   -8.1142 H   0  0  0  0  0
    9.9337  -34.6300   -7.3721 H   0  0  0  0  0
    7.3049  -36.9618   -8.7253 H   0  0  0  0  0
    7.7991  -35.2610   -8.9845 H   0  0  0  0  0
    7.0545  -34.9812   -6.7109 H   0  0  0  0  0
  1  2  1  0  0  0
  1  3  1  0  0  0
  1  5  1  0  0  0
  1  6  1  0  0  0
  2  7  1  0  0  0
  3  4  1  0  0  0
  3  8  1  0  0  0
  3  9  1  0  0  0
  4 10  1  0  0  0
M  END
$$$$
