EDO_1_A_401
  -ISIS-            3D

 10  9  0  0  0  0  0  0  0  0  1 V2000
   16.4090  -35.8240  -47.3890 C   0  0  0  0  0
   17.4940  -35.5170  -46.5060 O   0  0  0  0  0
   15.1410  -35.2210  -46.8070 C   0  0  0  0  0
   14.0890  -36.1860  -46.8070 O   0  0  0  0  0
   16.3285  -36.9277  -47.4679 H   0  0  0  0  0
   16.6143  -35.4388  -48.4097 H   0  0  0  0  0
   17.8317  -34.6602  -46.7312 H   0  0  0  0  0
   14.8227  -34.3421  -47.4049 H   0  0  0  0  0
   15.3001  -34.8578  -45.7695 H   0  0  0  0  0
   14.2440  -36.7939  -46.0956 H   0  0  0  0  0
  1  2  1  0  0  0
  1  3  1  0  0  0
  1  5  1  0  0  0
  1  6  1  0  0  0
  2  7  1  0  0  0
  3  4  1  0  0  0
  3  8  1  0  0  0
  3  9  1  0  0  0
  4 10  1  0  0  0
M  END
$$$$
