@<TRIPOS>MOLECULE
FMT_1_A_402
 3 2 0 0 0
SMALL
NO_CHARGES

@<TRIPOS>ATOM
      1 C         -11.6260  -28.0700   -9.6060 C.2    402  FMT402      0.0000
      2 O1        -12.8330  -27.8720   -9.7580 O.2    402  FMT402      0.0000
      3 O2        -10.7860  -28.1540  -10.5100 O.2    402  FMT402     -0.5000
@<TRIPOS>BOND
     1     1     2   ar
     2     1     3   ar

