@<TRIPOS>MOLECULE
FMT_1_A_404
 3 2 0 0 0
SMALL
NO_CHARGES

@<TRIPOS>ATOM
      1 C           1.3360  -10.4720  -12.4450 C.2    404  FMT404      0.0000
      2 O1          2.3930  -10.7660  -13.0020 O.2    404  FMT404      0.0000
      3 O2          1.0780  -10.7210  -11.2650 O.2    404  FMT404     -0.5000
@<TRIPOS>BOND
     1     1     2   ar
     2     1     3   ar

