@<TRIPOS>MOLECULE
EDO_2_C_402
 10 9 0 0 0
SMALL
NO_CHARGES

@<TRIPOS>ATOM
      1 C1         69.3230   57.2020  -71.7730 C.3    402  EDO402      0.0000
      2 O1         68.7410   55.9370  -72.0980 O.3    402  EDO402      0.0000
      3 C2         70.4880   56.9870  -70.8180 C.3    402  EDO402      0.0000
      4 O2         71.3840   56.0230  -71.3840 O.3    402  EDO402      0.0000
      5 H          68.5513   57.8534  -71.3139 H      402  EDO402      0.0000
      6 H          69.6651   57.6996  -72.7047 H      402  EDO402      0.0000
      7 H          69.4658   55.3534  -72.2918 H      402  EDO402      0.0000
      8 H          70.1198   56.6201  -69.8364 H      402  EDO402      0.0000
      9 H          71.0248   57.9426  -70.6402 H      402  EDO402      0.0000
     10 H          72.1001   55.8934  -70.7768 H      402  EDO402      0.0000
@<TRIPOS>BOND
     1     1     2    1
     2     1     3    1
     3     1     5    1
     4     1     6    1
     5     2     7    1
     6     3     4    1
     7     3     8    1
     8     3     9    1
     9     4    10    1

