EDO_2_A_402
  -ISIS-            3D

 10  9  0  0  0  0  0  0  0  0  1 V2000
   54.0630   10.5910  -73.5050 C   0  0  0  0  0
   53.9610   11.6180  -74.4970 O   0  0  0  0  0
   53.6970    9.2650  -74.1570 C   0  0  0  0  0
   52.5150    9.4530  -74.9420 O   0  0  0  0  0
   53.3669   10.8148  -72.6688 H   0  0  0  0  0
   55.0924   10.5565  -73.0910 H   0  0  0  0  0
   54.1788   12.4453  -74.0889 H   0  0  0  0  0
   53.5181    8.4790  -73.3953 H   0  0  0  0  0
   54.5189    8.9119  -74.8149 H   0  0  0  0  0
   52.6350   10.2632  -75.4244 H   0  0  0  0  0
  1  2  1  0  0  0
  1  3  1  0  0  0
  1  5  1  0  0  0
  1  6  1  0  0  0
  2  7  1  0  0  0
  3  4  1  0  0  0
  3  8  1  0  0  0
  3  9  1  0  0  0
  4 10  1  0  0  0
M  END
$$$$
