@<TRIPOS>MOLECULE
EDO_1_C_402
 10 9 0 0 0
SMALL
NO_CHARGES

@<TRIPOS>ATOM
      1 C1         18.1370   57.2020  -26.9860 C.3    402  EDO402      0.0000
      2 O1         18.7190   55.9370  -26.6610 O.3    402  EDO402      0.0000
      3 C2         16.9720   56.9870  -27.9410 C.3    402  EDO402      0.0000
      4 O2         16.0760   56.0230  -27.3750 O.3    402  EDO402      0.0000
      5 H          18.9009   57.8608  -27.4501 H      402  EDO402      0.0000
      6 H          17.7861   57.6983  -26.0563 H      402  EDO402      0.0000
      7 H          19.4429   56.0878  -26.0680 H      402  EDO402      0.0000
      8 H          17.3327   56.6203  -28.9250 H      402  EDO402      0.0000
      9 H          16.4257   57.9356  -28.1200 H      402  EDO402      0.0000
     10 H          16.6193   55.3095  -27.0592 H      402  EDO402      0.0000
@<TRIPOS>BOND
     1     1     2    1
     2     1     3    1
     3     1     5    1
     4     1     6    1
     5     2     7    1
     6     3     4    1
     7     3     8    1
     8     3     9    1
     9     4    10    1

