@<TRIPOS>MOLECULE
EDO_2_A_402
 10 9 0 0 0
SMALL
NO_CHARGES

@<TRIPOS>ATOM
      1 C1         54.0630   10.5910  -73.5050 C.3    402  EDO402      0.0000
      2 O1         53.9610   11.6180  -74.4970 O.3    402  EDO402      0.0000
      3 C2         53.6970    9.2650  -74.1570 C.3    402  EDO402      0.0000
      4 O2         52.5150    9.4530  -74.9420 O.3    402  EDO402      0.0000
      5 H          53.3669   10.8148  -72.6688 H      402  EDO402      0.0000
      6 H          55.0924   10.5565  -73.0910 H      402  EDO402      0.0000
      7 H          54.1788   12.4453  -74.0889 H      402  EDO402      0.0000
      8 H          53.5181    8.4790  -73.3953 H      402  EDO402      0.0000
      9 H          54.5189    8.9119  -74.8149 H      402  EDO402      0.0000
     10 H          52.6350   10.2632  -75.4244 H      402  EDO402      0.0000
@<TRIPOS>BOND
     1     1     2    1
     2     1     3    1
     3     1     5    1
     4     1     6    1
     5     2     7    1
     6     3     4    1
     7     3     8    1
     8     3     9    1
     9     4    10    1

