@<TRIPOS>MOLECULE
EDO_1_A_402
 10 9 0 0 0
SMALL
NO_CHARGES

@<TRIPOS>ATOM
      1 C1         33.3970   10.5910  -25.2540 C.3    402  EDO402      0.0000
      2 O1         33.4990   11.6180  -24.2620 O.3    402  EDO402      0.0000
      3 C2         33.7630    9.2650  -24.6020 C.3    402  EDO402      0.0000
      4 O2         34.9450    9.4530  -23.8170 O.3    402  EDO402      0.0000
      5 H          34.0883   10.8218  -26.0916 H      402  EDO402      0.0000
      6 H          32.3672   10.5679  -25.6649 H      402  EDO402      0.0000
      7 H          34.3128   11.4662  -23.7949 H      402  EDO402      0.0000
      8 H          33.9340    8.4831  -25.3713 H      402  EDO402      0.0000
      9 H          32.9364    8.9187  -23.9456 H      402  EDO402      0.0000
     10 H          35.1586    8.6278  -23.4025 H      402  EDO402      0.0000
@<TRIPOS>BOND
     1     1     2    1
     2     1     3    1
     3     1     5    1
     4     1     6    1
     5     2     7    1
     6     3     4    1
     7     3     8    1
     8     3     9    1
     9     4    10    1

