EDO_1_C_402
  -ISIS-            3D

 10  9  0  0  0  0  0  0  0  0  1 V2000
   18.1370   57.2020  -26.9860 C   0  0  0  0  0
   18.7190   55.9370  -26.6610 O   0  0  0  0  0
   16.9720   56.9870  -27.9410 C   0  0  0  0  0
   16.0760   56.0230  -27.3750 O   0  0  0  0  0
   18.9009   57.8608  -27.4501 H   0  0  0  0  0
   17.7861   57.6983  -26.0563 H   0  0  0  0  0
   19.4429   56.0878  -26.0680 H   0  0  0  0  0
   17.3327   56.6203  -28.9250 H   0  0  0  0  0
   16.4257   57.9356  -28.1200 H   0  0  0  0  0
   16.6193   55.3095  -27.0592 H   0  0  0  0  0
  1  2  1  0  0  0
  1  3  1  0  0  0
  1  5  1  0  0  0
  1  6  1  0  0  0
  2  7  1  0  0  0
  3  4  1  0  0  0
  3  8  1  0  0  0
  3  9  1  0  0  0
  4 10  1  0  0  0
M  END
$$$$
