@<TRIPOS>MOLECULE
CYV_2_A_302
 99 99 0 0 0
SMALL
NO_CHARGES

@<TRIPOS>ATOM
      1 O43       -32.1510  -32.9900   30.3070 O.2    302  CYV302      0.0000
      2 C42       -32.8170  -32.9880   31.3360 C.2    302  CYV302      0.0000
      3 O44       -33.8000  -31.9160   31.5350 O.3    302  CYV302      0.0000
      4 C46       -35.1340  -31.9020   30.9760 C.3    302  CYV302      0.0000
      5 C49       -35.8890  -30.7170   31.5770 C.3    302  CYV302      0.0000
      6 C48       -35.0680  -31.7160   29.4570 C.3    302  CYV302      0.0000
      7 C47       -35.8940  -33.1850   31.3290 C.3    302  CYV302      0.0000
      8 N41       -32.6730  -33.9100   32.2960 N.am   302  CYV302      0.0000
      9 C39       -31.7330  -35.0250   32.2060 C.3    302  CYV302      0.0000
     10 C40       -31.4760  -35.4860   33.6430 C.3    302  CYV302      0.0000
     11 O45       -32.6670  -36.0030   34.2610 O.3    302  CYV302      0.0000
     12 C37       -32.2740  -36.1640   31.3780 C.2    302  CYV302      0.0000
     13 O38       -33.4430  -36.5310   31.4780 O.2    302  CYV302      0.0000
     14 N36       -31.3870  -36.7150   30.5460 N.am   302  CYV302      0.0000
     15 C32       -31.6920  -37.8280   29.6520 C.3    302  CYV302      0.0000
     16 C33       -31.3100  -37.3400   28.2410 C.3    302  CYV302      0.0000
     17 C35       -31.2070  -38.4600   27.2090 C.3    302  CYV302      0.0000
     18 C34       -32.2950  -36.2860   27.7340 C.3    302  CYV302      0.0000
     19 C30       -30.9500  -39.0570   30.1130 C.2    302  CYV302      0.0000
     20 O31       -29.7280  -39.0630   30.1140 O.2    302  CYV302      0.0000
     21 C29       -31.7440  -40.2640   30.5890 C.3    302  CYV302      0.0000
     22 C22       -30.9330  -41.5680   30.6150 C.3    302  CYV302      0.0000
     23 C23       -31.8380  -42.7650   30.9070 C.3    302  CYV302      0.0000
     24 C24       -32.6930  -42.5740   32.1460 C.2    302  CYV302      0.0000
     25 C25       -33.8050  -43.3070   32.3880 C.2    302  CYV302      0.0000
     26 C26       -34.6020  -43.0590   33.6330 C.3    302  CYV302      0.0000
     27 C27       -34.2950  -44.3810   31.4490 C.3    302  CYV302      0.0000
     28 C21       -30.2360  -41.7690   29.2910 C.2    302  CYV302      0.0000
     29 O28       -30.8170  -41.5070   28.2430 O.2    302  CYV302      0.0000
     30 N20       -28.9790  -42.2300   29.3030 N.am   302  CYV302      0.0000
     31 C12       -28.2660  -42.4200   28.0340 C.3    302  CYV302      0.0000
     32 C5        -28.0110  -43.9070   27.8060 C.3    302  CYV302      0.0000
     33 C6        -29.2600  -44.7910   27.7990 C.3    302  CYV302      0.0000
     34 C7        -28.9480  -46.1180   27.1350 C.2    302  CYV302      0.0000
     35 O11       -30.0300  -47.0280   26.7600 O.3    302  CYV302      0.0000
     36 C9        -30.7860  -46.8370   25.5560 C.3    302  CYV302      0.0000
     37 C10       -29.9100  -46.9610   24.3220 C.3    302  CYV302      0.0000
     38 O8        -27.7930  -46.4520   26.8950 O.2    302  CYV302      0.0000
     39 C19       -27.0050  -41.5740   28.1600 C.3    302  CYV302      0.0000
     40 C13       -26.8710  -40.2770   27.2300 C.3    302  CYV302      0.0000
     41 C14       -26.8560  -40.3100   25.7000 C.3    302  CYV302      0.0000
     42 C15       -26.3740  -38.8660   25.3300 C.3    302  CYV302      0.0000
     43 N16       -25.4790  -38.5380   26.4190 N.am   302  CYV302      0.0000
     44 C17       -25.6450  -39.3830   27.3640 C.2    302  CYV302      0.0000
     45 O18       -24.9050  -39.4520   28.3230 O.2    302  CYV302      0.0000
     46 H         -36.9269  -30.6385   31.1867 H      302  CYV302      0.0000
     47 H         -35.3829  -29.7523   31.3551 H      302  CYV302      0.0000
     48 H         -35.9611  -30.7949   32.6837 H      302  CYV302      0.0000
     49 H         -36.0796  -31.6302   29.0045 H      302  CYV302      0.0000
     50 H         -34.5637  -32.5713   28.9578 H      302  CYV302      0.0000
     51 H         -34.5049  -30.7989   29.1785 H      302  CYV302      0.0000
     52 H         -36.9390  -33.1666   30.9509 H      302  CYV302      0.0000
     53 H         -35.9456  -33.3445   32.4279 H      302  CYV302      0.0000
     54 H         -35.4094  -34.0849   30.8924 H      302  CYV302      0.0000
     55 H         -33.2800  -33.8617   33.1255 H      302  CYV302      0.0000
     56 H         -30.7673  -34.6640   31.7812 H      302  CYV302      0.0000
     57 H         -31.0793  -34.6459   34.2538 H      302  CYV302      0.0000
     58 H         -30.6944  -36.2776   33.6410 H      302  CYV302      0.0000
     59 H         -32.4256  -36.4342   35.0701 H      302  CYV302      0.0000
     60 H         -30.4194  -36.3644   30.5316 H      302  CYV302      0.0000
     61 H         -32.7818  -38.0624   29.6552 H      302  CYV302      0.0000
     62 H         -30.2996  -36.8625   28.2929 H      302  CYV302      0.0000
     63 H         -31.0178  -38.0632   26.1865 H      302  CYV302      0.0000
     64 H         -32.1398  -39.0650   27.1604 H      302  CYV302      0.0000
     65 H         -30.3667  -39.1517   27.4333 H      302  CYV302      0.0000
     66 H         -31.9961  -35.8871   26.7388 H      302  CYV302      0.0000
     67 H         -32.3597  -35.4121   28.4196 H      302  CYV302      0.0000
     68 H         -33.3238  -36.6971   27.6279 H      302  CYV302      0.0000
     69 H         -32.6301  -40.3975   29.9266 H      302  CYV302      0.0000
     70 H         -32.1398  -40.0293   31.6024 H      302  CYV302      0.0000
     71 H         -30.1700  -41.4835   31.4262 H      302  CYV302      0.0000
     72 H         -31.2076  -43.6744   31.0419 H      302  CYV302      0.0000
     73 H         -32.4892  -42.9451   30.0222 H      302  CYV302      0.0000
     74 H         -32.3628  -41.8286   32.8887 H      302  CYV302      0.0000
     75 H         -35.6491  -42.7771   33.3843 H      302  CYV302      0.0000
     76 H         -34.1813  -42.2406   34.2575 H      302  CYV302      0.0000
     77 H         -34.6415  -43.9709   34.2691 H      302  CYV302      0.0000
     78 H         -34.5171  -45.3170   32.0080 H      302  CYV302      0.0000
     79 H         -33.5697  -44.6565   30.6561 H      302  CYV302      0.0000
     80 H         -35.2356  -44.0653   30.9457 H      302  CYV302      0.0000
     81 H         -28.5157  -42.4462   30.1959 H      302  CYV302      0.0000
     82 H         -28.8501  -42.0380   27.1646 H      302  CYV302      0.0000
     83 H         -27.3054  -44.2854   28.5826 H      302  CYV302      0.0000
     84 H         -27.4853  -44.0033   26.8266 H      302  CYV302      0.0000
     85 H         -30.0790  -44.2908   27.2373 H      302  CYV302      0.0000
     86 H         -29.6304  -44.9604   28.8336 H      302  CYV302      0.0000
     87 H         -31.2825  -45.8440   25.5672 H      302  CYV302      0.0000
     88 H         -31.5962  -47.5948   25.5101 H      302  CYV302      0.0000
     89 H         -30.5084  -46.8688   23.3894 H      302  CYV302      0.0000
     90 H         -29.3923  -47.9442   24.2847 H      302  CYV302      0.0000
     91 H         -29.1289  -46.1709   24.2866 H      302  CYV302      0.0000
     92 H         -26.1252  -42.2160   27.9222 H      302  CYV302      0.0000
     93 H         -26.8484  -41.2564   29.2164 H      302  CYV302      0.0000
     94 H         -27.7381  -39.6315   27.5237 H      302  CYV302      0.0000
     95 H         -27.8551  -40.5391   25.2672 H      302  CYV302      0.0000
     96 H         -26.1305  -41.0742   25.3372 H      302  CYV302      0.0000
     97 H         -27.2368  -38.1629   25.2823 H      302  CYV302      0.0000
     98 H         -25.8646  -38.8606   24.3403 H      302  CYV302      0.0000
     99 H         -24.7796  -37.7854   26.4368 H      302  CYV302      0.0000
@<TRIPOS>BOND
     1     1     2    2
     2     2     3    1
     3     2     8    1
     4     3     4    1
     5     4     5    1
     6     4     6    1
     7     4     7    1
     8     5    46    1
     9     5    47    1
    10     5    48    1
    11     6    49    1
    12     6    50    1
    13     6    51    1
    14     7    52    1
    15     7    53    1
    16     7    54    1
    17     8     9    1
    18     8    55    1
    19     9    10    1
    20     9    12    1
    21     9    56    1
    22    10    11    1
    23    10    57    1
    24    10    58    1
    25    11    59    1
    26    12    13    2
    27    12    14    1
    28    14    15    1
    29    14    60    1
    30    15    16    1
    31    15    19    1
    32    15    61    1
    33    16    17    1
    34    16    18    1
    35    16    62    1
    36    17    63    1
    37    17    64    1
    38    17    65    1
    39    18    66    1
    40    18    67    1
    41    18    68    1
    42    19    20    2
    43    19    21    1
    44    21    22    1
    45    21    69    1
    46    21    70    1
    47    22    23    1
    48    22    28    1
    49    22    71    1
    50    23    24    1
    51    23    72    1
    52    23    73    1
    53    24    25    2
    54    24    74    1
    55    25    26    1
    56    25    27    1
    57    26    75    1
    58    26    76    1
    59    26    77    1
    60    27    78    1
    61    27    79    1
    62    27    80    1
    63    28    29    2
    64    28    30    1
    65    30    31    1
    66    30    81    1
    67    31    32    1
    68    31    39    1
    69    31    82    1
    70    32    33    1
    71    32    83    1
    72    32    84    1
    73    33    34    1
    74    33    85    1
    75    33    86    1
    76    34    35    1
    77    34    38    2
    78    35    36    1
    79    36    37    1
    80    36    87    1
    81    36    88    1
    82    37    89    1
    83    37    90    1
    84    37    91    1
    85    39    40    1
    86    39    92    1
    87    39    93    1
    88    40    41    1
    89    40    44    1
    90    40    94    1
    91    41    42    1
    92    41    95    1
    93    41    96    1
    94    42    43    1
    95    42    97    1
    96    42    98    1
    97    43    44    1
    98    43    99    1
    99    44    45    2

