CYV_1_A_302
  -ISIS-            3D

 99 99  0  0  0  0  0  0  0  0  1 V2000
   18.5550  -32.9900   21.6270 O   0  0  0  0  0
   19.2210  -32.9880   20.5980 C   0  0  0  0  0
   20.2040  -31.9160   20.3990 O   0  0  0  0  0
   21.5380  -31.9020   20.9580 C   0  0  0  0  0
   22.2930  -30.7170   20.3570 C   0  0  0  0  0
   21.4720  -31.7160   22.4770 C   0  0  0  0  0
   22.2980  -33.1850   20.6050 C   0  0  0  0  0
   19.0770  -33.9100   19.6380 N   0  0  0  0  0
   18.1370  -35.0250   19.7280 C   0  0  0  0  0
   17.8800  -35.4860   18.2910 C   0  0  0  0  0
   19.0710  -36.0030   17.6730 O   0  0  0  0  0
   18.6780  -36.1640   20.5560 C   0  0  0  0  0
   19.8470  -36.5310   20.4560 O   0  0  0  0  0
   17.7910  -36.7150   21.3880 N   0  0  0  0  0
   18.0960  -37.8280   22.2820 C   0  0  0  0  0
   17.7140  -37.3400   23.6930 C   0  0  0  0  0
   17.6110  -38.4600   24.7250 C   0  0  0  0  0
   18.6990  -36.2860   24.2000 C   0  0  0  0  0
   17.3540  -39.0570   21.8210 C   0  0  0  0  0
   16.1320  -39.0630   21.8200 O   0  0  0  0  0
   18.1480  -40.2640   21.3450 C   0  0  0  0  0
   17.3370  -41.5680   21.3190 C   0  0  0  0  0
   18.2420  -42.7650   21.0270 C   0  0  0  0  0
   19.0970  -42.5740   19.7880 C   0  0  0  0  0
   20.2090  -43.3070   19.5460 C   0  0  0  0  0
   21.0060  -43.0590   18.3010 C   0  0  0  0  0
   20.6990  -44.3810   20.4850 C   0  0  0  0  0
   16.6400  -41.7690   22.6430 C   0  0  0  0  0
   17.2210  -41.5070   23.6910 O   0  0  0  0  0
   15.3830  -42.2300   22.6310 N   0  0  0  0  0
   14.6700  -42.4200   23.9000 C   0  0  0  0  0
   14.4150  -43.9070   24.1280 C   0  0  0  0  0
   15.6640  -44.7910   24.1350 C   0  0  0  0  0
   15.3520  -46.1180   24.7990 C   0  0  0  0  0
   16.4340  -47.0280   25.1740 O   0  0  0  0  0
   17.1900  -46.8370   26.3780 C   0  0  0  0  0
   16.3140  -46.9610   27.6120 C   0  0  0  0  0
   14.1970  -46.4520   25.0390 O   0  0  0  0  0
   13.4090  -41.5740   23.7740 C   0  0  0  0  0
   13.2750  -40.2770   24.7040 C   0  0  0  0  0
   13.2600  -40.3100   26.2340 C   0  0  0  0  0
   12.7780  -38.8660   26.6040 C   0  0  0  0  0
   11.8830  -38.5380   25.5150 N   0  0  0  0  0
   12.0490  -39.3830   24.5700 C   0  0  0  0  0
   11.3090  -39.4520   23.6110 O   0  0  0  0  0
   23.3308  -30.6384   20.7474 H   0  0  0  0  0
   21.7868  -29.7523   20.5788 H   0  0  0  0  0
   22.3652  -30.7949   19.2503 H   0  0  0  0  0
   22.4837  -31.6322   22.9297 H   0  0  0  0  0
   20.9659  -32.5703   22.9760 H   0  0  0  0  0
   20.9106  -30.7978   22.7555 H   0  0  0  0  0
   23.3428  -33.1669   20.9837 H   0  0  0  0  0
   22.3502  -33.3442   19.5061 H   0  0  0  0  0
   21.8130  -34.0849   21.0410 H   0  0  0  0  0
   19.6768  -33.8495   18.8037 H   0  0  0  0  0
   17.1711  -34.6641   20.1525 H   0  0  0  0  0
   17.4895  -34.6479   17.6750 H   0  0  0  0  0
   17.0988  -36.2770   18.2807 H   0  0  0  0  0
   19.4898  -36.6077   18.2761 H   0  0  0  0  0
   16.8232  -36.3648   21.4035 H   0  0  0  0  0
   19.1858  -38.0624   22.2788 H   0  0  0  0  0
   16.7036  -36.8626   23.6410 H   0  0  0  0  0
   17.4166  -38.0633   25.7465 H   0  0  0  0  0
   18.5456  -39.0618   24.7774 H   0  0  0  0  0
   16.7739  -39.1546   24.4980 H   0  0  0  0  0
   18.4005  -35.8877   25.1956 H   0  0  0  0  0
   18.7630  -35.4118   23.5148 H   0  0  0  0  0
   19.7280  -36.6968   24.3053 H   0  0  0  0  0
   19.0341  -40.3975   22.0074 H   0  0  0  0  0
   18.5437  -40.0292   20.3316 H   0  0  0  0  0
   16.5741  -41.4834   20.5077 H   0  0  0  0  0
   17.6116  -43.6744   20.8920 H   0  0  0  0  0
   18.8933  -42.9452   21.9117 H   0  0  0  0  0
   18.7665  -41.8291   19.0449 H   0  0  0  0  0
   22.0546  -42.7828   18.5496 H   0  0  0  0  0
   20.5887  -42.2368   17.6793 H   0  0  0  0  0
   21.0407  -43.9692   17.6623 H   0  0  0  0  0
   20.9240  -45.3160   19.9256 H   0  0  0  0  0
   19.9726  -44.6587   21.2762 H   0  0  0  0  0
   21.6381  -44.0640   20.9904 H   0  0  0  0  0
   14.9195  -42.4465   21.7381 H   0  0  0  0  0
   15.2541  -42.0380   24.7693 H   0  0  0  0  0
   13.7093  -44.2854   23.3515 H   0  0  0  0  0
   13.8894  -44.0032   25.1075 H   0  0  0  0  0
   16.4829  -44.2908   24.6968 H   0  0  0  0  0
   16.0344  -44.9604   23.1005 H   0  0  0  0  0
   17.6868  -45.8442   26.3668 H   0  0  0  0  0
   17.9999  -47.5951   26.4238 H   0  0  0  0  0
   16.9124  -46.8692   28.5445 H   0  0  0  0  0
   15.7960  -47.9440   27.6491 H   0  0  0  0  0
   15.5332  -46.1707   27.6476 H   0  0  0  0  0
   12.5289  -42.2159   24.0109 H   0  0  0  0  0
   13.2533  -41.2558   22.7176 H   0  0  0  0  0
   14.1422  -39.6314   24.4103 H   0  0  0  0  0
   14.2594  -40.5386   26.6664 H   0  0  0  0  0
   12.5349  -41.0744   26.5971 H   0  0  0  0  0
   13.6407  -38.1628   26.6520 H   0  0  0  0  0
   12.2684  -38.8609   27.5936 H   0  0  0  0  0
   11.1834  -37.7855   25.4972 H   0  0  0  0  0
  1  2  2  0  0  0
  2  3  1  0  0  0
  2  8  1  0  0  0
  3  4  1  0  0  0
  4  5  1  0  0  0
  4  6  1  0  0  0
  4  7  1  0  0  0
  5 46  1  0  0  0
  5 47  1  0  0  0
  5 48  1  0  0  0
  6 49  1  0  0  0
  6 50  1  0  0  0
  6 51  1  0  0  0
  7 52  1  0  0  0
  7 53  1  0  0  0
  7 54  1  0  0  0
  8  9  1  0  0  0
  8 55  1  0  0  0
  9 10  1  0  0  0
  9 12  1  0  0  0
  9 56  1  0  0  0
 10 11  1  0  0  0
 10 57  1  0  0  0
 10 58  1  0  0  0
 11 59  1  0  0  0
 12 13  2  0  0  0
 12 14  1  0  0  0
 14 15  1  0  0  0
 14 60  1  0  0  0
 15 16  1  0  0  0
 15 19  1  0  0  0
 15 61  1  0  0  0
 16 17  1  0  0  0
 16 18  1  0  0  0
 16 62  1  0  0  0
 17 63  1  0  0  0
 17 64  1  0  0  0
 17 65  1  0  0  0
 18 66  1  0  0  0
 18 67  1  0  0  0
 18 68  1  0  0  0
 19 20  2  0  0  0
 19 21  1  0  0  0
 21 22  1  0  0  0
 21 69  1  0  0  0
 21 70  1  0  0  0
 22 23  1  0  0  0
 22 28  1  0  0  0
 22 71  1  0  0  0
 23 24  1  0  0  0
 23 72  1  0  0  0
 23 73  1  0  0  0
 24 25  2  0  0  0
 24 74  1  0  0  0
 25 26  1  0  0  0
 25 27  1  0  0  0
 26 75  1  0  0  0
 26 76  1  0  0  0
 26 77  1  0  0  0
 27 78  1  0  0  0
 27 79  1  0  0  0
 27 80  1  0  0  0
 28 29  2  0  0  0
 28 30  1  0  0  0
 30 31  1  0  0  0
 30 81  1  0  0  0
 31 32  1  0  0  0
 31 39  1  0  0  0
 31 82  1  0  0  0
 32 33  1  0  0  0
 32 83  1  0  0  0
 32 84  1  0  0  0
 33 34  1  0  0  0
 33 85  1  0  0  0
 33 86  1  0  0  0
 34 35  1  0  0  0
 34 38  2  0  0  0
 35 36  1  0  0  0
 36 37  1  0  0  0
 36 87  1  0  0  0
 36 88  1  0  0  0
 37 89  1  0  0  0
 37 90  1  0  0  0
 37 91  1  0  0  0
 39 40  1  0  0  0
 39 92  1  0  0  0
 39 93  1  0  0  0
 40 41  1  0  0  0
 40 44  1  0  0  0
 40 94  1  0  0  0
 41 42  1  0  0  0
 41 95  1  0  0  0
 41 96  1  0  0  0
 42 43  1  0  0  0
 42 97  1  0  0  0
 42 98  1  0  0  0
 43 44  1  0  0  0
 43 99  1  0  0  0
 44 45  2  0  0  0
M  END
$$$$
