@<TRIPOS>MOLECULE
DMS_2_A_402
 10 9 0 0 0
SMALL
NO_CHARGES

@<TRIPOS>ATOM
      1 S          -6.1850   -1.1400    6.2870 S.o    402  DMS402      0.0000
      2 O          -7.1160   -1.1750    7.4130 O.2    402  DMS402      0.0000
      3 C1         -7.1960   -0.8450    4.8460 C.3    402  DMS402      0.0000
      4 C2         -5.7610   -2.8170    5.9180 C.3    402  DMS402      0.0000
      5 H          -6.5807   -0.9432    3.9284 H      402  DMS402      0.0000
      6 H          -7.6076    0.1840    4.8921 H      402  DMS402      0.0000
      7 H          -8.0361   -1.5687    4.8075 H      402  DMS402      0.0000
      8 H          -5.1786   -2.8602    4.9750 H      402  DMS402      0.0000
      9 H          -6.6762   -3.4356    5.8154 H      402  DMS402      0.0000
     10 H          -5.1397   -3.2276    6.7400 H      402  DMS402      0.0000
@<TRIPOS>BOND
     1     1     2    2
     2     1     3    1
     3     1     4    1
     4     3     5    1
     5     3     6    1
     6     3     7    1
     7     4     8    1
     8     4     9    1
     9     4    10    1

