DMS_2_A_403
  -ISIS-            3D

 10  9  0  0  0  0  0  0  0  0  1 V2000
   -2.3270  -18.9860   -8.0710 S   0  0  0  0  0
   -3.6160  -18.5950   -8.7840 O   0  0  0  0  0
   -1.0180  -18.2220   -9.0120 C   0  0  0  0  0
   -2.0310  -20.6620   -8.5980 C   0  0  0  0  0
   -0.0353  -18.6018   -8.6655 H   0  0  0  0  0
   -1.0516  -17.1238   -8.8593 H   0  0  0  0  0
   -1.1395  -18.4402  -10.0926 H   0  0  0  0  0
   -1.0234  -20.9878   -8.2666 H   0  0  0  0  0
   -2.1002  -20.7395   -9.7022 H   0  0  0  0  0
   -2.7905  -21.3285   -8.1410 H   0  0  0  0  0
  1  2  2  0  0  0
  1  3  1  0  0  0
  1  4  1  0  0  0
  3  5  1  0  0  0
  3  6  1  0  0  0
  3  7  1  0  0  0
  4  8  1  0  0  0
  4  9  1  0  0  0
  4 10  1  0  0  0
M  END
$$$$
