@<TRIPOS>MOLECULE
DMS_1_A_402
 10 9 0 0 0
SMALL
NO_CHARGES

@<TRIPOS>ATOM
      1 S           6.6760  -20.8110   29.6380 S.o    402  DMS402      0.0000
      2 O           8.0320  -20.3510   30.1040 O.2    402  DMS402      0.0000
      3 C1          5.6980  -21.0410   31.1060 C.3    402  DMS402      0.0000
      4 C2          6.8720  -22.5190   29.2030 C.3    402  DMS402      0.0000
      5 H           4.7334  -21.5220   30.8437 H      402  DMS402      0.0000
      6 H           5.4920  -20.0534   31.5671 H      402  DMS402      0.0000
      7 H           6.2408  -21.6746   31.8366 H      402  DMS402      0.0000
      8 H           5.8812  -22.9682   28.9858 H      402  DMS402      0.0000
      9 H           7.3567  -23.0761   30.0304 H      402  DMS402      0.0000
     10 H           7.5060  -22.5960   28.2961 H      402  DMS402      0.0000
@<TRIPOS>BOND
     1     1     2    2
     2     1     3    1
     3     1     4    1
     4     3     5    1
     5     3     6    1
     6     3     7    1
     7     4     8    1
     8     4     9    1
     9     4    10    1

