@<TRIPOS>MOLECULE
DMS_1_A_401
 10 9 0 0 0
SMALL
NO_CHARGES

@<TRIPOS>ATOM
      1 S           6.7660  -27.6240   22.0790 S.o    401  DMS401      0.0000
      2 O           7.5180  -26.6920   22.9850 O.2    401  DMS401      0.0000
      3 C1          5.7300  -26.6090   21.0670 C.3    401  DMS401      0.0000
      4 C2          5.4860  -28.3680   23.0670 C.3    401  DMS401      0.0000
      5 H           5.0469  -27.2459   20.4685 H      401  DMS401      0.0000
      6 H           6.3616  -26.0147   20.3754 H      401  DMS401      0.0000
      7 H           5.1334  -25.9163   21.6953 H      401  DMS401      0.0000
      8 H           4.8097  -28.9635   22.4202 H      401  DMS401      0.0000
      9 H           4.9013  -27.5864   23.5940 H      401  DMS401      0.0000
     10 H           5.9481  -29.0412   23.8178 H      401  DMS401      0.0000
@<TRIPOS>BOND
     1     1     2    2
     2     1     3    1
     3     1     4    1
     4     3     5    1
     5     3     6    1
     6     3     7    1
     7     4     8    1
     8     4     9    1
     9     4    10    1

