DMS_1_A_402
  -ISIS-            3D

 10  9  0  0  0  0  0  0  0  0  1 V2000
    6.6760  -20.8110   29.6380 S   0  0  0  0  0
    8.0320  -20.3510   30.1040 O   0  0  0  0  0
    5.6980  -21.0410   31.1060 C   0  0  0  0  0
    6.8720  -22.5190   29.2030 C   0  0  0  0  0
    4.7334  -21.5220   30.8437 H   0  0  0  0  0
    5.4920  -20.0534   31.5671 H   0  0  0  0  0
    6.2408  -21.6746   31.8366 H   0  0  0  0  0
    5.8812  -22.9682   28.9858 H   0  0  0  0  0
    7.3567  -23.0761   30.0304 H   0  0  0  0  0
    7.5060  -22.5960   28.2961 H   0  0  0  0  0
  1  2  2  0  0  0
  1  3  1  0  0  0
  1  4  1  0  0  0
  3  5  1  0  0  0
  3  6  1  0  0  0
  3  7  1  0  0  0
  4  8  1  0  0  0
  4  9  1  0  0  0
  4 10  1  0  0  0
M  END
$$$$
