@<TRIPOS>MOLECULE
4AP_1_A_201
 13 13 0 0 0
SMALL
NO_CHARGES

@<TRIPOS>ATOM
      1 N1         -2.5080   15.0140   -0.2800 N.ar   201  4AP201      0.0000
      2 C2         -3.3710   15.1960    0.7350 C.ar   201  4AP201      0.0000
      3 C3         -4.7380   15.3120    0.5600 C.ar   201  4AP201      0.0000
      4 C4         -5.2700   15.2480   -0.7290 C.ar   201  4AP201      0.0000
      5 C5         -4.3810   15.0520   -1.7830 C.ar   201  4AP201      0.0000
      6 C6         -3.0270   14.9390   -1.5160 C.ar   201  4AP201      0.0000
      7 N4         -6.6220   15.3960   -0.9530 N.pl3  201  4AP201      0.0000
      8 H          -2.9490   15.2542    1.7528 H      201  4AP201      0.0000
      9 H          -5.3964   15.4614    1.4313 H      201  4AP201      0.0000
     10 H          -4.7464   14.9908   -2.8211 H      201  4AP201      0.0000
     11 H          -2.3226   14.7846   -2.3511 H      201  4AP201      0.0000
     12 H          -6.9372   15.3454   -1.9302 H      201  4AP201      0.0000
     13 H          -7.2138   15.5459   -0.1258 H      201  4AP201      0.0000
@<TRIPOS>BOND
     1     1     2   ar
     2     1     6   ar
     3     2     3   ar
     4     2     8    1
     5     3     4   ar
     6     3     9    1
     7     4     5   ar
     8     4     7    1
     9     5     6   ar
    10     5    10    1
    11     6    11    1
    12     7    12    1
    13     7    13    1

