@<TRIPOS>MOLECULE
EDO_1_A_405
 10 9 0 0 0
SMALL
NO_CHARGES

@<TRIPOS>ATOM
      1 C1         13.7830   -2.9560   11.9050 C.3    405  EDO405      0.0000
      2 O1         14.5020   -3.9410   12.6020 O.3    405  EDO405      0.0000
      3 C2         14.0190   -3.0540   10.3910 C.3    405  EDO405      0.0000
      4 O2         13.2360   -2.0760    9.7470 O.3    405  EDO405      0.0000
      5 H          14.0643   -1.9487   12.2793 H      405  EDO405      0.0000
      6 H          12.7032   -3.0896   12.1249 H      405  EDO405      0.0000
      7 H          15.4087   -3.6704   12.6619 H      405  EDO405      0.0000
      8 H          13.7372   -4.0634   10.0232 H      405  EDO405      0.0000
      9 H          15.0914   -2.8916   10.1533 H      405  EDO405      0.0000
     10 H          13.3346   -2.1798    8.8095 H      405  EDO405      0.0000
@<TRIPOS>BOND
     1     1     2    1
     2     1     3    1
     3     1     5    1
     4     1     6    1
     5     2     7    1
     6     3     4    1
     7     3     8    1
     8     3     9    1
     9     4    10    1

