@<TRIPOS>MOLECULE
EDO_1_A_402
 10 9 0 0 0
SMALL
NO_CHARGES

@<TRIPOS>ATOM
      1 C1         10.5730  -20.2690   12.1890 C.3    402  EDO402      0.0000
      2 O1         10.8800  -21.2550   13.1270 O.3    402  EDO402      0.0000
      3 C2         11.1580  -20.6140   10.8310 C.3    402  EDO402      0.0000
      4 O2         10.9100  -19.5280    9.9860 O.3    402  EDO402      0.0000
      5 H          10.9763  -19.2963   12.5439 H      402  EDO402      0.0000
      6 H           9.4700  -20.1592   12.1112 H      402  EDO402      0.0000
      7 H          10.4535  -21.0396   13.9462 H      402  EDO402      0.0000
      8 H          10.6753  -21.5220   10.4147 H      402  EDO402      0.0000
      9 H          12.2485  -20.8131   10.8974 H      402  EDO402      0.0000
     10 H          11.6112  -18.8970   10.0822 H      402  EDO402      0.0000
@<TRIPOS>BOND
     1     1     2    1
     2     1     3    1
     3     1     5    1
     4     1     6    1
     5     2     7    1
     6     3     4    1
     7     3     8    1
     8     3     9    1
     9     4    10    1

