EDO_1_A_402
  -ISIS-            3D

 10  9  0  0  0  0  0  0  0  0  1 V2000
   10.5730  -20.2690   12.1890 C   0  0  0  0  0
   10.8800  -21.2550   13.1270 O   0  0  0  0  0
   11.1580  -20.6140   10.8310 C   0  0  0  0  0
   10.9100  -19.5280    9.9860 O   0  0  0  0  0
   10.9763  -19.2963   12.5439 H   0  0  0  0  0
    9.4700  -20.1592   12.1112 H   0  0  0  0  0
   10.4535  -21.0396   13.9462 H   0  0  0  0  0
   10.6753  -21.5220   10.4147 H   0  0  0  0  0
   12.2485  -20.8131   10.8974 H   0  0  0  0  0
   11.6112  -18.8970   10.0822 H   0  0  0  0  0
  1  2  1  0  0  0
  1  3  1  0  0  0
  1  5  1  0  0  0
  1  6  1  0  0  0
  2  7  1  0  0  0
  3  4  1  0  0  0
  3  8  1  0  0  0
  3  9  1  0  0  0
  4 10  1  0  0  0
M  END
$$$$
