@<TRIPOS>MOLECULE
EDO_1_A_403
 10 9 0 0 0
SMALL
NO_CHARGES

@<TRIPOS>ATOM
      1 C1         -6.6670    0.8060   -5.6470 C.3    403  EDO403      0.0000
      2 O1         -7.2280    1.2320   -4.4370 O.3    403  EDO403      0.0000
      3 C2         -7.7100    0.4760   -6.7090 C.3    403  EDO403      0.0000
      4 O2         -7.0590    0.3450   -7.9460 O.3    403  EDO403      0.0000
      5 H          -6.0403   -0.0884   -5.4482 H      403  EDO403      0.0000
      6 H          -5.9771    1.5935   -6.0198 H      403  EDO403      0.0000
      7 H          -7.5626    2.1119   -4.5494 H      403  EDO403      0.0000
      8 H          -8.4519    1.2974   -6.7884 H      403  EDO403      0.0000
      9 H          -8.2676   -0.4502   -6.4571 H      403  EDO403      0.0000
     10 H          -6.6544   -0.5118   -7.9892 H      403  EDO403      0.0000
@<TRIPOS>BOND
     1     1     2    1
     2     1     3    1
     3     1     5    1
     4     1     6    1
     5     2     7    1
     6     3     4    1
     7     3     8    1
     8     3     9    1
     9     4    10    1

