DMS_2_A_403
  -ISIS-            3D

 10  9  0  0  0  0  0  0  0  0  1 V2000
   -2.3740  -18.8840   -8.0530 S   0  0  0  0  0
   -3.6430  -18.7420   -8.8790 O   0  0  0  0  0
   -1.0630  -18.2190   -9.0630 C   0  0  0  0  0
   -1.9180  -20.5900   -8.2130 C   0  0  0  0  0
   -0.0805  -18.4410   -8.5986 H   0  0  0  0  0
   -1.1827  -17.1188   -9.1381 H   0  0  0  0  0
   -1.0989  -18.6560  -10.0820 H   0  0  0  0  0
   -0.9125  -20.7543   -7.7745 H   0  0  0  0  0
   -1.9098  -20.8922   -9.2804 H   0  0  0  0  0
   -2.6518  -21.2176   -7.6670 H   0  0  0  0  0
  1  2  2  0  0  0
  1  3  1  0  0  0
  1  4  1  0  0  0
  3  5  1  0  0  0
  3  6  1  0  0  0
  3  7  1  0  0  0
  4  8  1  0  0  0
  4  9  1  0  0  0
  4 10  1  0  0  0
M  END
$$$$
