@<TRIPOS>MOLECULE
DMS_1_A_405
 10 9 0 0 0
SMALL
NO_CHARGES

@<TRIPOS>ATOM
      1 S           5.6010    0.4950   18.0080 S.o    405  DMS405      0.0000
      2 O           5.6830   -0.6650   18.9540 O.2    405  DMS405      0.0000
      3 C1          7.2700    0.9930   17.7290 C.3    405  DMS405      0.0000
      4 C2          5.0620    1.8760   18.9840 C.3    405  DMS405      0.0000
      5 H           7.2886    1.9406   17.1527 H      405  DMS405      0.0000
      6 H           7.7951    0.2095   17.1451 H      405  DMS405      0.0000
      7 H           7.7977    1.1385   18.6938 H      405  DMS405      0.0000
      8 H           5.1207    2.8064   18.3829 H      405  DMS405      0.0000
      9 H           5.6952    1.9805   19.8888 H      405  DMS405      0.0000
     10 H           4.0094    1.7166   19.2956 H      405  DMS405      0.0000
@<TRIPOS>BOND
     1     1     2    2
     2     1     3    1
     3     1     4    1
     4     3     5    1
     5     3     6    1
     6     3     7    1
     7     4     8    1
     8     4     9    1
     9     4    10    1

