DMS_2_A_402
  -ISIS-            3D

 10  9  0  0  0  0  0  0  0  0  1 V2000
   -6.1200   -1.0410    6.2370 S   0  0  0  0  0
   -7.0470   -0.7690    7.3790 O   0  0  0  0  0
   -7.1440   -1.0250    4.7790 C   0  0  0  0  0
   -5.7780   -2.7700    6.2600 C   0  0  0  0  0
   -6.5534   -1.3569    3.9007 H   0  0  0  0  0
   -7.5059    0.0077    4.5973 H   0  0  0  0  0
   -8.0175   -1.6957    4.9123 H   0  0  0  0  0
   -5.2170   -3.0563    5.3470 H   0  0  0  0  0
   -6.7210   -3.3519    6.3110 H   0  0  0  0  0
   -5.1590   -3.0099    7.1486 H   0  0  0  0  0
  1  2  2  0  0  0
  1  3  1  0  0  0
  1  4  1  0  0  0
  3  5  1  0  0  0
  3  6  1  0  0  0
  3  7  1  0  0  0
  4  8  1  0  0  0
  4  9  1  0  0  0
  4 10  1  0  0  0
M  END
$$$$
