DMS_2_A_405
  -ISIS-            3D

 10  9  0  0  0  0  0  0  0  0  1 V2000
   -5.6010    0.4950  -18.0080 S   0  0  0  0  0
   -5.6830   -0.6650  -18.9540 O   0  0  0  0  0
   -7.2700    0.9930  -17.7290 C   0  0  0  0  0
   -5.0620    1.8760  -18.9840 C   0  0  0  0  0
   -7.2886    1.9406  -17.1527 H   0  0  0  0  0
   -7.7951    0.2095  -17.1451 H   0  0  0  0  0
   -7.7977    1.1385  -18.6938 H   0  0  0  0  0
   -5.1207    2.8064  -18.3829 H   0  0  0  0  0
   -5.6952    1.9805  -19.8888 H   0  0  0  0  0
   -4.0094    1.7166  -19.2956 H   0  0  0  0  0
  1  2  2  0  0  0
  1  3  1  0  0  0
  1  4  1  0  0  0
  3  5  1  0  0  0
  3  6  1  0  0  0
  3  7  1  0  0  0
  4  8  1  0  0  0
  4  9  1  0  0  0
  4 10  1  0  0  0
M  END
$$$$
