AZP_1_A_307
  -ISIS-            3D

 89 90  0  0  0  0  0  0  0  0  1 V2000
   17.4470    2.7070   20.8740 N   0  0  0  0  0
   18.3480    3.3380   20.1040 C   0  0  0  0  0
   17.8170    4.1610   19.0270 O   0  0  0  0  0
   18.8680    4.7480   18.2510 C   0  0  0  0  0
   19.6150    5.8790   18.9450 C   0  0  0  0  0
   19.1250    7.1870   18.8780 C   0  0  0  0  0
   19.8450    8.2270   19.4940 C   0  0  0  0  0
   21.0520    7.9540   20.1560 C   0  0  0  0  0
   21.5420    6.6350   20.2240 C   0  0  0  0  0
   20.8170    5.5910   19.6330 C   0  0  0  0  0
   19.5680    3.2800   20.3280 O   0  0  0  0  0
   17.7590    1.8930   22.0650 C   0  0  0  0  0
   17.3200    2.7110   23.2690 C   0  0  0  0  0
   17.2520    1.9280   24.5680 C   0  0  0  0  0
   18.6300    2.0600   25.2260 C   0  0  0  0  0
   16.2000    2.5820   25.4810 C   0  0  0  0  0
   17.0310    0.5970   21.8830 C   0  0  0  0  0
   15.8070    0.5050   21.7030 O   0  0  0  0  0
   17.7340   -0.4950   21.8270 N   0  0  0  0  0
   17.0460   -1.7670   21.6260 C   0  0  0  0  0
   18.0600   -2.8940   21.7870 C   0  0  0  0  0
   18.9280   -3.0480   20.5510 C   0  0  0  0  0
   18.3770   -3.0310   19.2690 C   0  0  0  0  0
   19.2280   -3.2530   18.1640 C   0  0  0  0  0
   20.5980   -3.5140   18.3480 C   0  0  0  0  0
   21.1320   -3.5950   19.6100 C   0  0  0  0  0
   20.3040   -3.3710   20.7140 C   0  0  0  0  0
   15.9600   -1.9320   22.6700 C   0  0  0  0  0
   16.1580   -1.5620   23.8020 O   0  0  0  0  0
   14.7890   -2.4880   22.3690 N   0  0  0  0  0
   13.8090   -2.7580   23.4300 N   0  0  0  0  0
   12.6240   -1.9210   23.6020 C   0  0  0  0  0
   13.0670   -0.6490   24.2860 C   0  0  0  0  0
   11.8550    0.1820   24.5670 C   0  0  0  0  0
   11.7350    0.8560   25.7120 N   0  0  0  0  0
   10.9820    0.1550   23.7110 O   0  0  0  0  0
   13.9060   -3.8970   24.1290 C   0  0  0  0  0
   13.2820   -4.0340   25.2010 O   0  0  0  0  0
   14.9340   -4.9350   23.6700 C   0  0  0  0  0
   15.6700   -5.4550   24.9120 C   0  0  0  0  0
   16.3480   -4.2910   25.3830 O   0  0  0  0  0
   16.7630   -6.4550   24.5350 C   0  0  0  0  0
   16.6750   -7.6780   24.6390 O   0  0  0  0  0
   17.9880   -5.9150   24.0190 O   0  0  0  0  0
   18.8420   -6.9430   23.4810 C   0  0  0  0  0
   19.7210   -6.1150   22.5530 C   0  0  0  0  0
   16.4554    2.7878   20.6106 H   0  0  0  0  0
   18.4245    5.1521   17.3167 H   0  0  0  0  0
   19.5851    3.9745   17.9046 H   0  0  0  0  0
   18.1832    7.4104   18.3491 H   0  0  0  0  0
   19.4627    9.2610   19.4509 H   0  0  0  0  0
   21.6189    8.7748   20.6273 H   0  0  0  0  0
   22.4918    6.4240   20.7440 H   0  0  0  0  0
   21.2250    4.5706   19.6889 H   0  0  0  0  0
   18.8546    1.7030   22.1428 H   0  0  0  0  0
   16.2968    3.0981   23.0497 H   0  0  0  0  0
   17.9603    3.6169   23.3726 H   0  0  0  0  0
   16.9922    0.8587   24.4048 H   0  0  0  0  0
   18.6691    1.5063   26.1909 H   0  0  0  0  0
   18.9015    3.1163   25.4479 H   0  0  0  0  0
   19.4355    1.6369   24.5851 H   0  0  0  0  0
   16.1660    2.0881   26.4780 H   0  0  0  0  0
   15.1762    2.5013   25.0509 H   0  0  0  0  0
   16.4043    3.6622   25.6552 H   0  0  0  0  0
   18.7587   -0.4713   21.9155 H   0  0  0  0  0
   16.5646   -1.7928   20.6238 H   0  0  0  0  0
   17.5184   -3.8562   21.9283 H   0  0  0  0  0
   18.6754   -2.7423   22.7023 H   0  0  0  0  0
   17.3055   -2.8577   19.0838 H   0  0  0  0  0
   18.8129   -3.2224   17.1420 H   0  0  0  0  0
   21.2444   -3.6707   17.4675 H   0  0  0  0  0
   22.2006   -3.8284   19.7533 H   0  0  0  0  0
   20.7376   -3.4379   21.7258 H   0  0  0  0  0
   14.5799   -2.7159   21.3873 H   0  0  0  0  0
   11.8331   -2.4234   24.2045 H   0  0  0  0  0
   12.1720   -1.6972   22.6083 H   0  0  0  0  0
   13.7752   -0.0740   23.6476 H   0  0  0  0  0
   13.5966   -0.8960   25.2348 H   0  0  0  0  0
   15.6633   -4.5507   22.9308 H   0  0  0  0  0
   14.3981   -5.7755   23.1751 H   0  0  0  0  0
   14.9891   -5.8834   25.6755 H   0  0  0  0  0
   15.7140   -3.6876   25.7496 H   0  0  0  0  0
   18.3020   -7.7138   22.8921 H   0  0  0  0  0
   19.4479   -7.4309   24.2727 H   0  0  0  0  0
   20.5122   -6.7424   22.0877 H   0  0  0  0  0
   20.2359   -5.2924   23.0953 H   0  0  0  0  0
   19.1320   -5.6736   21.7214 H   0  0  0  0  0
   10.8697    1.3866   25.8747 H   0  0  0  0  0
   12.4955    0.8378   26.4034 H   0  0  0  0  0
  1  2  1  0  0  0
  1 12  1  0  0  0
  1 47  1  0  0  0
  2  3  1  0  0  0
  2 11  2  0  0  0
  3  4  1  0  0  0
  4  5  1  0  0  0
  4 48  1  0  0  0
  4 49  1  0  0  0
  5  6  2  0  0  0
  5 10  1  0  0  0
  6  7  1  0  0  0
  6 50  1  0  0  0
  7  8  2  0  0  0
  7 51  1  0  0  0
  8  9  1  0  0  0
  8 52  1  0  0  0
  9 10  2  0  0  0
  9 53  1  0  0  0
 10 54  1  0  0  0
 12 13  1  0  0  0
 12 17  1  0  0  0
 12 55  1  0  0  0
 13 14  1  0  0  0
 13 56  1  0  0  0
 13 57  1  0  0  0
 14 15  1  0  0  0
 14 16  1  0  0  0
 14 58  1  0  0  0
 15 59  1  0  0  0
 15 60  1  0  0  0
 15 61  1  0  0  0
 16 62  1  0  0  0
 16 63  1  0  0  0
 16 64  1  0  0  0
 17 18  2  0  0  0
 17 19  1  0  0  0
 19 20  1  0  0  0
 19 65  1  0  0  0
 20 21  1  0  0  0
 20 28  1  0  0  0
 20 66  1  0  0  0
 21 22  1  0  0  0
 21 67  1  0  0  0
 21 68  1  0  0  0
 22 23  2  0  0  0
 22 27  1  0  0  0
 23 24  1  0  0  0
 23 69  1  0  0  0
 24 25  2  0  0  0
 24 70  1  0  0  0
 25 26  1  0  0  0
 25 71  1  0  0  0
 26 27  2  0  0  0
 26 72  1  0  0  0
 27 73  1  0  0  0
 28 29  2  0  0  0
 28 30  1  0  0  0
 30 31  1  0  0  0
 30 74  1  0  0  0
 31 32  1  0  0  0
 31 37  1  0  0  0
 32 33  1  0  0  0
 32 75  1  0  0  0
 32 76  1  0  0  0
 33 34  1  0  0  0
 33 77  1  0  0  0
 33 78  1  0  0  0
 34 35  1  0  0  0
 34 36  2  0  0  0
 35 88  1  0  0  0
 35 89  1  0  0  0
 37 38  2  0  0  0
 37 39  1  0  0  0
 39 40  1  0  0  0
 39 79  1  0  0  0
 39 80  1  0  0  0
 40 41  1  0  0  0
 40 42  1  0  0  0
 40 81  1  0  0  0
 41 82  1  0  0  0
 42 43  2  0  0  0
 42 44  1  0  0  0
 44 45  1  0  0  0
 45 46  1  0  0  0
 45 83  1  0  0  0
 45 84  1  0  0  0
 46 85  1  0  0  0
 46 86  1  0  0  0
 46 87  1  0  0  0
M  END
$$$$
