EDO_2_A_308
  -ISIS-            3D

 10  9  0  0  0  0  0  0  0  0  1 V2000
   -4.0700    4.7640   24.6380 C   0  0  0  0  0
   -5.2440    4.0450   25.0820 O   0  0  0  0  0
   -4.1960    6.2660   24.9120 C   0  0  0  0  0
   -3.7000    6.5810   26.2010 O   0  0  0  0  0
   -3.9534    4.5999   23.5452 H   0  0  0  0  0
   -3.1633    4.3479   25.1251 H   0  0  0  0  0
   -5.1176    3.1257   24.8878 H   0  0  0  0  0
   -5.2460    6.6096   24.8060 H   0  0  0  0  0
   -3.5970    6.8321   24.1683 H   0  0  0  0  0
   -4.2711    6.1632   26.8330 H   0  0  0  0  0
  1  2  1  0  0  0
  1  3  1  0  0  0
  1  5  1  0  0  0
  1  6  1  0  0  0
  2  7  1  0  0  0
  3  4  1  0  0  0
  3  8  1  0  0  0
  3  9  1  0  0  0
  4 10  1  0  0  0
M  END
$$$$
