@<TRIPOS>MOLECULE
EDO_2_A_308
 10 9 0 0 0
SMALL
NO_CHARGES

@<TRIPOS>ATOM
      1 C1         -4.0700    4.7640   24.6380 C.3    308  EDO308      0.0000
      2 O1         -5.2440    4.0450   25.0820 O.3    308  EDO308      0.0000
      3 C2         -4.1960    6.2660   24.9120 C.3    308  EDO308      0.0000
      4 O2         -3.7000    6.5810   26.2010 O.3    308  EDO308      0.0000
      5 H          -3.9534    4.5999   23.5452 H      308  EDO308      0.0000
      6 H          -3.1633    4.3479   25.1251 H      308  EDO308      0.0000
      7 H          -5.1176    3.1257   24.8878 H      308  EDO308      0.0000
      8 H          -5.2460    6.6096   24.8060 H      308  EDO308      0.0000
      9 H          -3.5970    6.8321   24.1683 H      308  EDO308      0.0000
     10 H          -4.2711    6.1632   26.8330 H      308  EDO308      0.0000
@<TRIPOS>BOND
     1     1     2    1
     2     1     3    1
     3     1     5    1
     4     1     6    1
     5     2     7    1
     6     3     4    1
     7     3     8    1
     8     3     9    1
     9     4    10    1

