@<TRIPOS>MOLECULE
DMS_1_A_401
 10 9 0 0 0
SMALL
NO_CHARGES

@<TRIPOS>ATOM
      1 S          14.4910   54.0720   18.4020 S.o    401  DMS401      0.0000
      2 O          15.0550   52.7410   18.0790 O.2    401  DMS401      0.0000
      3 C1         15.3230   55.2690   17.3840 C.3    401  DMS401      0.0000
      4 C2         15.0800   54.5120   20.0050 C.3    401  DMS401      0.0000
      5 H          15.0001   56.2912   17.6689 H      401  DMS401      0.0000
      6 H          15.0646   55.0919   16.3199 H      401  DMS401      0.0000
      7 H          16.4214   55.1803   17.5113 H      401  DMS401      0.0000
      8 H          14.7631   55.5463   20.2501 H      401  DMS401      0.0000
      9 H          16.1872   54.4497   20.0365 H      401  DMS401      0.0000
     10 H          14.6560   53.8176   20.7590 H      401  DMS401      0.0000
@<TRIPOS>BOND
     1     1     2    2
     2     1     3    1
     3     1     4    1
     4     3     5    1
     5     3     6    1
     6     3     7    1
     7     4     8    1
     8     4     9    1
     9     4    10    1

