DMS_1_B_401
  -ISIS-            3D

 10  9  0  0  0  0  0  0  0  0  1 V2000
   28.7920   47.4680   25.2450 S   0  0  0  0  0
   28.4490   48.6420   26.0440 O   0  0  0  0  0
   30.2120   46.7710   26.0250 C   0  0  0  0  0
   29.5450   48.0420   23.7460 C   0  0  0  0  0
   30.6098   45.9393   25.4081 H   0  0  0  0  0
   29.9278   46.3726   27.0204 H   0  0  0  0  0
   30.9995   47.5409   26.1557 H   0  0  0  0  0
   29.9472   47.1809   23.1738 H   0  0  0  0  0
   30.3675   48.7502   23.9740 H   0  0  0  0  0
   28.7834   48.5594   23.1271 H   0  0  0  0  0
  1  2  2  0  0  0
  1  3  1  0  0  0
  1  4  1  0  0  0
  3  5  1  0  0  0
  3  6  1  0  0  0
  3  7  1  0  0  0
  4  8  1  0  0  0
  4  9  1  0  0  0
  4 10  1  0  0  0
M  END
$$$$
