@<TRIPOS>MOLECULE
DMS_1_A_402
 10 9 0 0 0
SMALL
NO_CHARGES

@<TRIPOS>ATOM
      1 S          28.3870   34.0590   14.0980 S.o    402  DMS402      0.0000
      2 O          28.1480   32.7130   13.4830 O.2    402  DMS402      0.0000
      3 C1         27.0540   35.1550   13.6170 C.3    402  DMS402      0.0000
      4 C2         29.7260   34.7950   13.1990 C.3    402  DMS402      0.0000
      5 H          27.2720   36.1846   13.9674 H      402  DMS402      0.0000
      6 H          26.1079   34.8075   14.0800 H      402  DMS402      0.0000
      7 H          26.9410   35.1550   12.5135 H      402  DMS402      0.0000
      8 H          29.8863   35.8349   13.5497 H      402  DMS402      0.0000
      9 H          29.4992   34.8031   12.1131 H      402  DMS402      0.0000
     10 H          30.6525   34.2101   13.3718 H      402  DMS402      0.0000
@<TRIPOS>BOND
     1     1     2    2
     2     1     3    1
     3     1     4    1
     4     3     5    1
     5     3     6    1
     6     3     7    1
     7     4     8    1
     8     4     9    1
     9     4    10    1

