DMS_1_A_401
  -ISIS-            3D

 10  9  0  0  0  0  0  0  0  0  1 V2000
   14.4910   54.0720   18.4020 S   0  0  0  0  0
   15.0550   52.7410   18.0790 O   0  0  0  0  0
   15.3230   55.2690   17.3840 C   0  0  0  0  0
   15.0800   54.5120   20.0050 C   0  0  0  0  0
   15.0001   56.2912   17.6689 H   0  0  0  0  0
   15.0646   55.0919   16.3199 H   0  0  0  0  0
   16.4214   55.1803   17.5113 H   0  0  0  0  0
   14.7631   55.5463   20.2501 H   0  0  0  0  0
   16.1872   54.4497   20.0365 H   0  0  0  0  0
   14.6560   53.8176   20.7590 H   0  0  0  0  0
  1  2  2  0  0  0
  1  3  1  0  0  0
  1  4  1  0  0  0
  3  5  1  0  0  0
  3  6  1  0  0  0
  3  7  1  0  0  0
  4  8  1  0  0  0
  4  9  1  0  0  0
  4 10  1  0  0  0
M  END
$$$$
