@<TRIPOS>MOLECULE
FMT_1_B_705
 3 2 0 0 0
SMALL
NO_CHARGES

@<TRIPOS>ATOM
      1 C          38.4560  -22.2910   18.0700 C.2    705  FMT705      0.0000
      2 O1         37.2530  -22.5530   17.9950 O.2    705  FMT705      0.0000
      3 O2         39.0650  -21.5290   17.3130 O.2    705  FMT705     -0.5000
@<TRIPOS>BOND
     1     1     2   ar
     2     1     3   ar

