@<TRIPOS>MOLECULE
FMT_1_A_605
 3 2 0 0 0
SMALL
NO_CHARGES

@<TRIPOS>ATOM
      1 C          38.5370   -0.9620   -9.9170 C.2    605  FMT605      0.0000
      2 O1         38.8070   -1.2520   -8.7520 O.2    605  FMT605      0.0000
      3 O2         38.0030    0.0980  -10.2480 O.2    605  FMT605     -0.5000
@<TRIPOS>BOND
     1     1     2   ar
     2     1     3   ar

