@<TRIPOS>MOLECULE
FMT_1_B_714
 3 2 0 0 0
SMALL
NO_CHARGES

@<TRIPOS>ATOM
      1 C          21.7330  -19.7350  -17.3250 C.2    714  FMT714      0.0000
      2 O1         22.8100  -19.7590  -17.9420 O.2    714  FMT714      0.0000
      3 O2         21.5130  -19.1770  -16.2380 O.2    714  FMT714     -0.5000
@<TRIPOS>BOND
     1     1     2   ar
     2     1     3   ar

