@<TRIPOS>MOLECULE
FMT_1_B_715
 3 2 0 0 0
SMALL
NO_CHARGES

@<TRIPOS>ATOM
      1 C          40.8380  -40.0930   19.2830 C.2    715  FMT715      0.0000
      2 O1         40.7130  -38.9730   19.8000 O.2    715  FMT715      0.0000
      3 O2         40.2640  -41.1640   19.5950 O.2    715  FMT715     -0.5000
@<TRIPOS>BOND
     1     1     2   ar
     2     1     3   ar

