@<TRIPOS>MOLECULE
FMT_1_B_702
 3 2 0 0 0
SMALL
NO_CHARGES

@<TRIPOS>ATOM
      1 C          17.0330  -16.2510   -4.8830 C.2    702  FMT702      0.0000
      2 O1         17.0390  -15.5000   -5.8580 O.2    702  FMT702      0.0000
      3 O2         17.5930  -16.0150   -3.8090 O.2    702  FMT702     -0.5000
@<TRIPOS>BOND
     1     1     2   ar
     2     1     3   ar

