NEN_1_A_401
  -ISIS-            3D

 16 16  0  0  0  0  0  0  0  0  1 V2000
   10.1300  -12.8000   16.4170 O   0  0  0  0  0
    9.4030  -14.8370   17.2910 N   0  0  0  0  0
    9.0750  -14.5060   14.9820 C   0  0  0  0  0
    8.3420  -16.8760   17.5520 O   0  0  0  0  0
    9.6130  -13.9030   16.2810 C   0  0  0  0  0
    8.7940  -16.0030   16.8260 C   0  0  0  0  0
    8.8070  -15.9780   15.3150 C   0  0  0  0  0
    9.7780  -14.6510   18.7040 C   0  0  0  0  0
    9.8530  -13.1920   19.1510 C   0  0  0  0  0
    9.0373  -13.9937   14.0136 H   0  0  0  0  0
    8.4952  -16.7942   14.6538 H   0  0  0  0  0
   10.7631  -15.1337   18.9018 H   0  0  0  0  0
    9.0447  -15.1677   19.3661 H   0  0  0  0  0
    9.9829  -13.1242   20.2549 H   0  0  0  0  0
    8.9230  -12.6332   18.9015 H   0  0  0  0  0
   10.7172  -12.6533   18.7046 H   0  0  0  0  0
  1  5  2  0  0  0
  2  5  1  0  0  0
  2  6  1  0  0  0
  2  8  1  0  0  0
  3  5  1  0  0  0
  3  7  1  0  0  0
  3 10  1  0  0  0
  4  6  2  0  0  0
  6  7  1  0  0  0
  7 11  1  0  0  0
  8  9  1  0  0  0
  8 12  1  0  0  0
  8 13  1  0  0  0
  9 14  1  0  0  0
  9 15  1  0  0  0
  9 16  1  0  0  0
M  END
$$$$
