@<TRIPOS>MOLECULE
NEN_1_A_401
 16 16 0 0 0
SMALL
NO_CHARGES

@<TRIPOS>ATOM
      1 O1         10.1300  -12.8000   16.4170 O.2    401  NEN401      0.0000
      2 N1          9.4030  -14.8370   17.2910 N.ar   401  NEN401      0.0000
      3 C1          9.0750  -14.5060   14.9820 C.ar   401  NEN401      0.0000
      4 O2          8.3420  -16.8760   17.5520 O.2    401  NEN401      0.0000
      5 C2          9.6130  -13.9030   16.2810 C.ar   401  NEN401      0.0000
      6 C3          8.7940  -16.0030   16.8260 C.ar   401  NEN401      0.0000
      7 C4          8.8070  -15.9780   15.3150 C.ar   401  NEN401      0.0000
      8 C5          9.7780  -14.6510   18.7040 C.3    401  NEN401      0.0000
      9 C6          9.8530  -13.1920   19.1510 C.3    401  NEN401      0.0000
     10 H           9.0373  -13.9937   14.0136 H      401  NEN401      0.0000
     11 H           8.4952  -16.7942   14.6538 H      401  NEN401      0.0000
     12 H          10.7631  -15.1337   18.9018 H      401  NEN401      0.0000
     13 H           9.0447  -15.1677   19.3661 H      401  NEN401      0.0000
     14 H           9.9829  -13.1242   20.2549 H      401  NEN401      0.0000
     15 H           8.9230  -12.6332   18.9015 H      401  NEN401      0.0000
     16 H          10.7172  -12.6533   18.7046 H      401  NEN401      0.0000
@<TRIPOS>BOND
     1     1     5    2
     2     2     5   ar
     3     2     6   ar
     4     2     8    1
     5     3     5   ar
     6     3     7   ar
     7     3    10    1
     8     4     6    2
     9     6     7   ar
    10     7    11    1
    11     8     9    1
    12     8    12    1
    13     8    13    1
    14     9    14    1
    15     9    15    1
    16     9    16    1

