@<TRIPOS>MOLECULE
NEN_2_A_402
 16 16 0 0 0
SMALL
NO_CHARGES

@<TRIPOS>ATOM
      1 O1         19.5350   -2.1150  -13.7150 O.2    402  NEN402      0.0000
      2 N1         20.4560   -3.7880  -12.3740 N.ar   402  NEN402      0.0000
      3 C1         18.1140   -3.6120  -12.3700 C.ar   402  NEN402      0.0000
      4 O2         20.7110   -5.6930  -11.0850 O.2    402  NEN402      0.0000
      5 C2         19.4160   -3.0490  -12.9280 C.ar   402  NEN402      0.0000
      6 C3         20.0010   -4.7920  -11.5130 C.ar   402  NEN402      0.0000
      7 C4         18.5240   -4.5770  -11.2460 C.ar   402  NEN402      0.0000
      8 C5         21.8780   -3.5470  -12.6690 C.3    402  NEN402      0.0000
      9 C6         22.5420   -4.6710  -13.4690 C.3    402  NEN402      0.0000
     10 H          17.1100   -3.2762  -12.6559 H      402  NEN402      0.0000
     11 H          17.9002   -5.1379  -10.5415 H      402  NEN402      0.0000
     12 H          22.4440   -3.4079  -11.7186 H      402  NEN402      0.0000
     13 H          22.0075   -2.5950  -13.2335 H      402  NEN402      0.0000
     14 H          23.6031   -4.4287  -13.7029 H      402  NEN402      0.0000
     15 H          22.0197   -4.8408  -14.4372 H      402  NEN402      0.0000
     16 H          22.5413   -5.6356  -12.9157 H      402  NEN402      0.0000
@<TRIPOS>BOND
     1     1     5    2
     2     2     5   ar
     3     2     6   ar
     4     2     8    1
     5     3     5   ar
     6     3     7   ar
     7     3    10    1
     8     4     6    2
     9     6     7   ar
    10     7    11    1
    11     8     9    1
    12     8    12    1
    13     8    13    1
    14     9    14    1
    15     9    15    1
    16     9    16    1

