DMS_1_A_1003
  -ISIS-            3D

 10  9  0  0  0  0  0  0  0  0  1 V2000
    6.1210   -0.9880   -6.3620 S   0  0  0  0  0
    7.1230   -0.8480   -7.4740 O   0  0  0  0  0
    7.0410   -0.8240   -4.8440 C   0  0  0  0  0
    5.7720   -2.7220   -6.2290 C   0  0  0  0  0
    6.3874   -1.0632   -3.9803 H   0  0  0  0  0
    7.3979    0.2215   -4.7442 H   0  0  0  0  0
    7.9162   -1.5056   -4.8465 H   0  0  0  0  0
    5.1508   -2.9135   -5.3303 H   0  0  0  0  0
    6.7144   -3.3029   -6.1579 H   0  0  0  0  0
    5.2118   -3.0527   -7.1275 H   0  0  0  0  0
  1  2  2  0  0  0
  1  3  1  0  0  0
  1  4  1  0  0  0
  3  5  1  0  0  0
  3  6  1  0  0  0
  3  7  1  0  0  0
  4  8  1  0  0  0
  4  9  1  0  0  0
  4 10  1  0  0  0
M  END
$$$$
