@<TRIPOS>MOLECULE
DMS_2_A_1005
 10 9 0 0 0
SMALL
NO_CHARGES

@<TRIPOS>ATOM
      1 S          -5.8700    0.5130  -18.0080 S.o   1005  DMS1005      0.0000
      2 O          -7.3220    0.8200  -18.0680 O.2   1005  DMS1005      0.0000
      3 C1         -5.0560    1.6550  -19.1030 C.3   1005  DMS1005      0.0000
      4 C2         -5.6480   -0.9450  -18.9840 C.3   1005  DMS1005      0.0000
      5 H          -3.9882    1.3754  -19.2126 H     1005  DMS1005      0.0000
      6 H          -5.1163    2.6770  -18.6760 H     1005  DMS1005      0.0000
      7 H          -5.5442    1.6508  -20.0992 H     1005  DMS1005      0.0000
      8 H          -4.5660   -1.1587  -19.1021 H     1005  DMS1005      0.0000
      9 H          -6.1104   -0.8170  -19.9843 H     1005  DMS1005      0.0000
     10 H          -6.1274   -1.8050  -18.4732 H     1005  DMS1005      0.0000
@<TRIPOS>BOND
     1     1     2    2
     2     1     3    1
     3     1     4    1
     4     3     5    1
     5     3     6    1
     6     3     7    1
     7     4     8    1
     8     4     9    1
     9     4    10    1

