@<TRIPOS>MOLECULE
DMS_2_A_1003
 10 9 0 0 0
SMALL
NO_CHARGES

@<TRIPOS>ATOM
      1 S          -6.1210   -0.9880    6.3620 S.o   1003  DMS1003      0.0000
      2 O          -7.1230   -0.8480    7.4740 O.2   1003  DMS1003      0.0000
      3 C1         -7.0410   -0.8240    4.8440 C.3   1003  DMS1003      0.0000
      4 C2         -5.7720   -2.7220    6.2290 C.3   1003  DMS1003      0.0000
      5 H          -6.3874   -1.0632    3.9803 H     1003  DMS1003      0.0000
      6 H          -7.3979    0.2215    4.7442 H     1003  DMS1003      0.0000
      7 H          -7.9162   -1.5056    4.8465 H     1003  DMS1003      0.0000
      8 H          -5.1508   -2.9135    5.3303 H     1003  DMS1003      0.0000
      9 H          -6.7144   -3.3029    6.1579 H     1003  DMS1003      0.0000
     10 H          -5.2118   -3.0527    7.1275 H     1003  DMS1003      0.0000
@<TRIPOS>BOND
     1     1     2    2
     2     1     3    1
     3     1     4    1
     4     3     5    1
     5     3     6    1
     6     3     7    1
     7     4     8    1
     8     4     9    1
     9     4    10    1

