@<TRIPOS>MOLECULE
DMS_1_A_403
 10 9 0 0 0
SMALL
NO_CHARGES

@<TRIPOS>ATOM
      1 S           2.3850  -19.1110    8.2900 S.o    403  DMS403      0.0000
      2 O           3.7040  -18.7830    8.9340 O.2    403  DMS403      0.0000
      3 C1          1.1850  -18.0650    9.0740 C.3    403  DMS403      0.0000
      4 C2          1.8610  -20.6480    9.0060 C.3    403  DMS403      0.0000
      5 H           0.1641  -18.3565    8.7529 H      403  DMS403      0.0000
      6 H           1.3665  -17.0121    8.7758 H      403  DMS403      0.0000
      7 H           1.2625  -18.1458   10.1778 H      403  DMS403      0.0000
      8 H           0.8241  -20.8782    8.6865 H      403  DMS403      0.0000
      9 H           1.9034  -20.5942   10.1134 H      403  DMS403      0.0000
     10 H           2.5309  -21.4611    8.6585 H      403  DMS403      0.0000
@<TRIPOS>BOND
     1     1     2    2
     2     1     3    1
     3     1     4    1
     4     3     5    1
     5     3     6    1
     6     3     7    1
     7     4     8    1
     8     4     9    1
     9     4    10    1

