@<TRIPOS>MOLECULE
DMS_1_A_402
 10 9 0 0 0
SMALL
NO_CHARGES

@<TRIPOS>ATOM
      1 S           6.2680   -1.0390   -6.3740 S.o    402  DMS402      0.0000
      2 O           7.2120   -0.7530   -7.4730 O.2    402  DMS402      0.0000
      3 C1          7.2200   -0.8440   -4.8700 C.3    402  DMS402      0.0000
      4 C2          6.1080   -2.7910   -6.2930 C.3    402  DMS402      0.0000
      5 H           6.6221   -1.1840   -3.9998 H      402  DMS402      0.0000
      6 H           7.4726    0.2275   -4.7340 H      402  DMS402      0.0000
      7 H           8.1592   -1.4320   -4.9273 H      402  DMS402      0.0000
      8 H           5.5364   -3.0771   -5.3866 H      402  DMS402      0.0000
      9 H           7.1070   -3.2729   -6.2664 H      402  DMS402      0.0000
     10 H           5.5598   -3.1514   -7.1874 H      402  DMS402      0.0000
@<TRIPOS>BOND
     1     1     2    2
     2     1     3    1
     3     1     4    1
     4     3     5    1
     5     3     6    1
     6     3     7    1
     7     4     8    1
     8     4     9    1
     9     4    10    1

