DMS_1_A_401
  -ISIS-            3D

 10  9  0  0  0  0  0  0  0  0  1 V2000
    6.9570  -28.1110   21.4700 S   0  0  0  0  0
    7.5940  -27.0590   22.2200 O   0  0  0  0  0
    5.6470  -28.7220   22.4900 C   0  0  0  0  0
    5.9490  -27.3400   20.2300 C   0  0  0  0  0
    5.0336  -29.4497   21.9204 H   0  0  0  0  0
    5.0027  -27.8875   22.8358 H   0  0  0  0  0
    6.0780  -29.2344   23.3744 H   0  0  0  0  0
    5.3322  -28.1054   19.7163 H   0  0  0  0  0
    6.6018  -26.8460   19.4815 H   0  0  0  0  0
    5.2858  -26.5779   20.6887 H   0  0  0  0  0
  1  2  2  0  0  0
  1  3  1  0  0  0
  1  4  1  0  0  0
  3  5  1  0  0  0
  3  6  1  0  0  0
  3  7  1  0  0  0
  4  8  1  0  0  0
  4  9  1  0  0  0
  4 10  1  0  0  0
M  END
$$$$
