@<TRIPOS>MOLECULE
DMS_1_A_406
 10 9 0 0 0
SMALL
NO_CHARGES

@<TRIPOS>ATOM
      1 S          -7.2490  -17.9650    4.2450 S.o    406  DMS406      0.0000
      2 O          -6.7870  -19.3430    3.7990 O.2    406  DMS406      0.0000
      3 C1         -7.9420  -18.1700    5.8660 C.3    406  DMS406      0.0000
      4 C2         -8.7120  -17.5840    3.3090 C.3    406  DMS406      0.0000
      5 H          -8.4041  -17.2181    6.1986 H      406  DMS406      0.0000
      6 H          -7.1387  -18.4492    6.5781 H      406  DMS406      0.0000
      7 H          -8.7115  -18.9690    5.8546 H      406  DMS406      0.0000
      8 H          -9.1598  -16.6404    3.6824 H      406  DMS406      0.0000
      9 H          -9.4509  -18.4060    3.4038 H      406  DMS406      0.0000
     10 H          -8.4434  -17.4581    2.2402 H      406  DMS406      0.0000
@<TRIPOS>BOND
     1     1     2    2
     2     1     3    1
     3     1     4    1
     4     3     5    1
     5     3     6    1
     6     3     7    1
     7     4     8    1
     8     4     9    1
     9     4    10    1

