DMS_1_A_410
  -ISIS-            3D

 10  9  0  0  0  0  0  0  0  0  1 V2000
    2.8440   30.6990    5.9570 S   0  0  0  0  0
    2.3540   32.0150    6.4900 O   0  0  0  0  0
    1.4910   29.9750    5.0710 C   0  0  0  0  0
    2.9620   29.5590    7.3390 C   0  0  0  0  0
    1.7623   28.9503    4.7444 H   0  0  0  0  0
    1.2645   30.5899    4.1761 H   0  0  0  0  0
    0.5906   29.9293    5.7174 H   0  0  0  0  0
    3.2090   28.5442    6.9655 H   0  0  0  0  0
    1.9993   29.5274    7.8893 H   0  0  0  0  0
    3.7641   29.8975    8.0263 H   0  0  0  0  0
  1  2  2  0  0  0
  1  3  1  0  0  0
  1  4  1  0  0  0
  3  5  1  0  0  0
  3  6  1  0  0  0
  3  7  1  0  0  0
  4  8  1  0  0  0
  4  9  1  0  0  0
  4 10  1  0  0  0
M  END
$$$$
