@<TRIPOS>MOLECULE
DMS_2_A_402
 10 9 0 0 0
SMALL
NO_CHARGES

@<TRIPOS>ATOM
      1 S          26.7150  -20.2400  -13.3270 S.o    402  DMS402      0.0000
      2 O          27.3250  -20.0310  -14.6910 O.2    402  DMS402      0.0000
      3 C1         28.0340  -19.9640  -12.1630 C.3    402  DMS402      0.0000
      4 C2         26.6410  -21.9890  -13.1340 C.3    402  DMS402      0.0000
      5 H          27.7093  -20.2660  -11.1463 H      402  DMS402      0.0000
      6 H          28.2897  -18.8847  -12.1500 H      402  DMS402      0.0000
      7 H          28.9350  -20.5436  -12.4517 H      402  DMS402      0.0000
      8 H          26.3567  -22.2433  -12.0925 H      402  DMS402      0.0000
      9 H          27.6216  -22.4506  -13.3715 H      402  DMS402      0.0000
     10 H          25.8748  -22.4021  -13.8216 H      402  DMS402      0.0000
@<TRIPOS>BOND
     1     1     2    2
     2     1     3    1
     3     1     4    1
     4     3     5    1
     5     3     6    1
     6     3     7    1
     7     4     8    1
     8     4     9    1
     9     4    10    1

