@<TRIPOS>MOLECULE
DMS_2_A_403
 10 9 0 0 0
SMALL
NO_CHARGES

@<TRIPOS>ATOM
      1 S          -7.5360   -0.2660   -4.6570 S.o    403  DMS403      0.0000
      2 O          -8.9500   -0.0630   -5.0440 O.2    403  DMS403      0.0000
      3 C1         -6.3860   -0.0660   -5.9960 C.3    403  DMS403      0.0000
      4 C2         -7.3020   -1.9620   -4.2370 C.3    403  DMS403      0.0000
      5 H          -5.3559   -0.2721   -5.6398 H      403  DMS403      0.0000
      6 H          -6.4374    0.9764   -6.3717 H      403  DMS403      0.0000
      7 H          -6.6393   -0.7632   -6.8209 H      403  DMS403      0.0000
      8 H          -6.2487   -2.1321   -3.9335 H      403  DMS403      0.0000
      9 H          -7.5435   -2.6072   -5.1066 H      403  DMS403      0.0000
     10 H          -7.9676   -2.2289   -3.3907 H      403  DMS403      0.0000
@<TRIPOS>BOND
     1     1     2    2
     2     1     3    1
     3     1     4    1
     4     3     5    1
     5     3     6    1
     6     3     7    1
     7     4     8    1
     8     4     9    1
     9     4    10    1

