DMS_2_A_402
  -ISIS-            3D

 10  9  0  0  0  0  0  0  0  0  1 V2000
   26.7150  -20.2400  -13.3270 S   0  0  0  0  0
   27.3250  -20.0310  -14.6910 O   0  0  0  0  0
   28.0340  -19.9640  -12.1630 C   0  0  0  0  0
   26.6410  -21.9890  -13.1340 C   0  0  0  0  0
   27.7093  -20.2660  -11.1463 H   0  0  0  0  0
   28.2897  -18.8847  -12.1500 H   0  0  0  0  0
   28.9350  -20.5436  -12.4517 H   0  0  0  0  0
   26.3567  -22.2433  -12.0925 H   0  0  0  0  0
   27.6216  -22.4506  -13.3715 H   0  0  0  0  0
   25.8748  -22.4021  -13.8216 H   0  0  0  0  0
  1  2  2  0  0  0
  1  3  1  0  0  0
  1  4  1  0  0  0
  3  5  1  0  0  0
  3  6  1  0  0  0
  3  7  1  0  0  0
  4  8  1  0  0  0
  4  9  1  0  0  0
  4 10  1  0  0  0
M  END
$$$$
