@<TRIPOS>MOLECULE
DMS_1_A_401
 10 9 0 0 0
SMALL
NO_CHARGES

@<TRIPOS>ATOM
      1 S         -19.5560  -27.3340   11.6050 S.o    401  DMS401      0.0000
      2 O         -20.1480  -26.3560   12.5320 O.2    401  DMS401      0.0000
      3 C1        -18.7530  -26.4200   10.3570 C.3    401  DMS401      0.0000
      4 C2        -20.9020  -27.8920   10.6200 C.3    401  DMS401      0.0000
      5 H         -18.4263  -27.0958    9.5404 H      401  DMS401      0.0000
      6 H         -17.8570  -25.9241   10.7837 H      401  DMS401      0.0000
      7 H         -19.4269  -25.6421    9.9430 H      401  DMS401      0.0000
      8 H         -20.5281  -28.5280    9.7916 H      401  DMS401      0.0000
      9 H         -21.4640  -27.0328   10.2000 H      401  DMS401      0.0000
     10 H         -21.5893  -28.4965   11.2468 H      401  DMS401      0.0000
@<TRIPOS>BOND
     1     1     2    2
     2     1     3    1
     3     1     4    1
     4     3     5    1
     5     3     6    1
     6     3     7    1
     7     4     8    1
     8     4     9    1
     9     4    10    1

