DMS_1_A_404
  -ISIS-            3D

 10  9  0  0  0  0  0  0  0  0  1 V2000
   -3.0230   15.5440   22.5620 S   0  0  0  0  0
   -2.8680   15.3260   24.0380 O   0  0  0  0  0
   -1.6650   14.6810   21.7950 C   0  0  0  0  0
   -4.3270   14.4570   22.0060 C   0  0  0  0  0
   -1.7908   14.6858   20.6930 H   0  0  0  0  0
   -1.6182   13.6337   22.1580 H   0  0  0  0  0
   -0.7151   15.1945   22.0492 H   0  0  0  0  0
   -4.3828   14.4729   20.8984 H   0  0  0  0  0
   -5.2950   14.8072   22.4191 H   0  0  0  0  0
   -4.1394   13.4202   22.3534 H   0  0  0  0  0
  1  2  2  0  0  0
  1  3  1  0  0  0
  1  4  1  0  0  0
  3  5  1  0  0  0
  3  6  1  0  0  0
  3  7  1  0  0  0
  4  8  1  0  0  0
  4  9  1  0  0  0
  4 10  1  0  0  0
M  END
$$$$
