@<TRIPOS>MOLECULE
DMS_1_A_410
 10 9 0 0 0
SMALL
NO_CHARGES

@<TRIPOS>ATOM
      1 S           2.8440   30.6990    5.9570 S.o    410  DMS410      0.0000
      2 O           2.3540   32.0150    6.4900 O.2    410  DMS410      0.0000
      3 C1          1.4910   29.9750    5.0710 C.3    410  DMS410      0.0000
      4 C2          2.9620   29.5590    7.3390 C.3    410  DMS410      0.0000
      5 H           1.7623   28.9503    4.7444 H      410  DMS410      0.0000
      6 H           1.2645   30.5899    4.1761 H      410  DMS410      0.0000
      7 H           0.5906   29.9293    5.7174 H      410  DMS410      0.0000
      8 H           3.2090   28.5442    6.9655 H      410  DMS410      0.0000
      9 H           1.9993   29.5274    7.8893 H      410  DMS410      0.0000
     10 H           3.7641   29.8975    8.0263 H      410  DMS410      0.0000
@<TRIPOS>BOND
     1     1     2    2
     2     1     3    1
     3     1     4    1
     4     3     5    1
     5     3     6    1
     6     3     7    1
     7     4     8    1
     8     4     9    1
     9     4    10    1

