DMS_2_A_407
  -ISIS-            3D

 10  9  0  0  0  0  0  0  0  0  1 V2000
   -4.8350  -17.5900  -17.5960 S   0  0  0  0  0
   -4.6690  -17.7530  -16.1410 O   0  0  0  0  0
   -3.2010  -17.6990  -18.2750 C   0  0  0  0  0
   -5.4810  -19.1060  -18.2560 C   0  0  0  0  0
   -3.2531  -17.7007  -19.3830 H   0  0  0  0  0
   -2.6984  -18.6251  -17.9279 H   0  0  0  0  0
   -2.6075  -16.8212  -17.9467 H   0  0  0  0  0
   -5.4837  -19.0633  -19.3644 H   0  0  0  0  0
   -6.5224  -19.2458  -17.9003 H   0  0  0  0  0
   -4.8662  -19.9663  -17.9204 H   0  0  0  0  0
  1  2  2  0  0  0
  1  3  1  0  0  0
  1  4  1  0  0  0
  3  5  1  0  0  0
  3  6  1  0  0  0
  3  7  1  0  0  0
  4  8  1  0  0  0
  4  9  1  0  0  0
  4 10  1  0  0  0
M  END
$$$$
