@<TRIPOS>MOLECULE
G81_2_A_307
 71 72 0 0 0
SMALL
NO_CHARGES

@<TRIPOS>ATOM
      1 O35       -29.5000    1.9740   29.4050 O.2    307  G81307      0.0000
      2 C31       -30.7120    1.9480   29.1880 C.2    307  G81307      0.0000
      3 O1        -31.4320    3.1520   28.7000 O.3    307  G81307      0.0000
      4 C1        -31.0820    4.0070   27.5850 C.3    307  G81307      0.0000
      5 C2        -30.4700    5.2990   28.1420 C.3    307  G81307      0.0000
      6 C4        -32.3800    4.3500   26.8420 C.3    307  G81307      0.0000
      7 C6        -30.0850    3.3650   26.6120 C.3    307  G81307      0.0000
      8 N33       -31.4070    0.8220   29.4190 N.am   307  G81307      0.0000
      9 C37       -30.7110   -0.3840   29.8740 C.3    307  G81307      0.0000
     10 C41       -31.7840   -1.3110   30.4380 C.3    307  G81307      0.0000
     11 C51       -32.3220   -0.5990   31.6590 C.ar   307  G81307      0.0000
     12 C53       -33.4610    0.2110   31.5560 C.ar   307  G81307      0.0000
     13 C7        -33.9530    0.8800   32.6750 C.ar   307  G81307      0.0000
     14 C9        -33.2870    0.7470   33.8940 C.ar   307  G81307      0.0000
     15 C11       -32.1440   -0.0550   34.0090 C.ar   307  G81307      0.0000
     16 C55       -31.6590   -0.7280   32.8850 C.ar   307  G81307      0.0000
     17 C39       -30.0060   -0.9500   28.6780 C.2    307  G81307      0.0000
     18 O47       -30.5550   -0.8680   27.5820 O.2    307  G81307      0.0000
     19 N49       -28.7860   -1.4750   28.8550 N.am   307  G81307      0.0000
     20 C57       -28.0870   -2.0170   27.6770 C.3    307  G81307      0.0000
     21 C59       -26.7640   -1.2560   27.4630 C.3    307  G81307      0.0000
     22 C61       -26.9940    0.2240   27.1860 C.3    307  G81307      0.0000
     23 C73       -27.5910    0.4950   25.7870 C.3    307  G81307      0.0000
     24 C71       -26.8450    1.6870   25.1670 C.3    307  G81307      0.0000
     25 N69       -25.6950    1.7170   26.0470 N.am   307  G81307      0.0000
     26 C65       -25.7320    1.0210   27.1750 C.2    307  G81307      0.0000
     27 O66       -24.9250    1.0820   28.1050 O.2    307  G81307      0.0000
     28 C63       -27.9450   -3.5270   27.8830 C.3    307  G81307      0.0000
     29 C82       -29.2180   -4.2230   27.3500 C.3    307  G81307      0.0000
     30 C84       -29.7280   -3.7370   25.9720 C.2    307  G81307      0.0000
     31 O88       -28.9580   -3.4280   25.0760 O.2    307  G81307      0.0000
     32 O86       -31.1680   -3.6380   25.6600 O.3    307  G81307      0.0000
     33 C3        -31.6650   -3.2170   24.3710 C.3    307  G81307      0.0000
     34 C5        -32.7100   -4.1840   23.8480 C.3    307  G81307      0.0000
     35 H         -30.2191    6.0226   27.3364 H      307  G81307      0.0000
     36 H         -29.5330    5.0987   28.7057 H      307  G81307      0.0000
     37 H         -31.1635    5.8147   28.8412 H      307  G81307      0.0000
     38 H         -32.2027    5.0410   25.9896 H      307  G81307      0.0000
     39 H         -33.1214    4.8385   27.5111 H      307  G81307      0.0000
     40 H         -32.8663    3.4392   26.4297 H      307  G81307      0.0000
     41 H         -29.8791    4.0194   25.7375 H      307  G81307      0.0000
     42 H         -30.4684    2.4006   26.2143 H      307  G81307      0.0000
     43 H         -29.1072    3.1572   27.0959 H      307  G81307      0.0000
     44 H         -32.4169    0.8288   29.2353 H      307  G81307      0.0000
     45 H         -29.9689   -0.1420   30.6711 H      307  G81307      0.0000
     46 H         -31.3404   -2.2918   30.7228 H      307  G81307      0.0000
     47 H         -32.5851   -1.5194   29.6940 H      307  G81307      0.0000
     48 H         -33.9952    0.3194   30.5973 H      307  G81307      0.0000
     49 H         -34.8554    1.5099   32.5985 H      307  G81307      0.0000
     50 H         -33.6676    1.2799   34.7823 H      307  G81307      0.0000
     51 H         -31.6297   -0.1519   34.9802 H      307  G81307      0.0000
     52 H         -30.7566   -1.3564   32.9745 H      307  G81307      0.0000
     53 H         -28.3399   -1.4916   29.7823 H      307  G81307      0.0000
     54 H         -28.6737   -1.8308   26.7538 H      307  G81307      0.0000
     55 H         -26.1911   -1.7138   26.6241 H      307  G81307      0.0000
     56 H         -26.1330   -1.3740   28.3742 H      307  G81307      0.0000
     57 H         -27.6563    0.6670   27.9655 H      307  G81307      0.0000
     58 H         -28.6863    0.6843   25.8384 H      307  G81307      0.0000
     59 H         -27.4486   -0.3956   25.1322 H      307  G81307      0.0000
     60 H         -27.4413    2.6239   25.2324 H      307  G81307      0.0000
     61 H         -26.5742    1.5004   24.1040 H      307  G81307      0.0000
     62 H         -24.8701    2.2946   25.8364 H      307  G81307      0.0000
     63 H         -27.7520   -3.7864   28.9482 H      307  G81307      0.0000
     64 H         -27.0725   -3.8989   27.2976 H      307  G81307      0.0000
     65 H         -30.0393   -4.0871   28.0889 H      307  G81307      0.0000
     66 H         -29.0361   -5.3194   27.2923 H      307  G81307      0.0000
     67 H         -30.8475   -3.1326   23.6256 H      307  G81307      0.0000
     68 H         -32.1121   -2.2048   24.4645 H      307  G81307      0.0000
     69 H         -33.1074   -3.8620   22.8607 H      307  G81307      0.0000
     70 H         -33.5750   -4.2650   24.5417 H      307  G81307      0.0000
     71 H         -32.2915   -5.2059   23.7186 H      307  G81307      0.0000
@<TRIPOS>BOND
     1     1     2    2
     2     2     3    1
     3     2     8    1
     4     3     4    1
     5     4     5    1
     6     4     6    1
     7     4     7    1
     8     5    35    1
     9     5    36    1
    10     5    37    1
    11     6    38    1
    12     6    39    1
    13     6    40    1
    14     7    41    1
    15     7    42    1
    16     7    43    1
    17     8     9    1
    18     8    44    1
    19     9    10    1
    20     9    17    1
    21     9    45    1
    22    10    11    1
    23    10    46    1
    24    10    47    1
    25    11    12   ar
    26    11    16   ar
    27    12    13   ar
    28    12    48    1
    29    13    14   ar
    30    13    49    1
    31    14    15   ar
    32    14    50    1
    33    15    16   ar
    34    15    51    1
    35    16    52    1
    36    17    18    2
    37    17    19    1
    38    19    20    1
    39    19    53    1
    40    20    21    1
    41    20    28    1
    42    20    54    1
    43    21    22    1
    44    21    55    1
    45    21    56    1
    46    22    23    1
    47    22    26    1
    48    22    57    1
    49    23    24    1
    50    23    58    1
    51    23    59    1
    52    24    25    1
    53    24    60    1
    54    24    61    1
    55    25    26    1
    56    25    62    1
    57    26    27    2
    58    28    29    1
    59    28    63    1
    60    28    64    1
    61    29    30    1
    62    29    65    1
    63    29    66    1
    64    30    31    2
    65    30    32    1
    66    32    33    1
    67    33    34    1
    68    33    67    1
    69    33    68    1
    70    34    69    1
    71    34    70    1
    72    34    71    1

