@<TRIPOS>MOLECULE
G81_1_A_307
 71 72 0 0 0
SMALL
NO_CHARGES

@<TRIPOS>ATOM
      1 O35        15.9920    1.9740   22.3410 O.2    307  G81307      0.0000
      2 C31        17.2040    1.9480   22.5580 C.2    307  G81307      0.0000
      3 O1         17.9240    3.1520   23.0460 O.3    307  G81307      0.0000
      4 C1         17.5740    4.0070   24.1610 C.3    307  G81307      0.0000
      5 C2         16.9620    5.2990   23.6040 C.3    307  G81307      0.0000
      6 C4         18.8720    4.3500   24.9040 C.3    307  G81307      0.0000
      7 C6         16.5770    3.3650   25.1340 C.3    307  G81307      0.0000
      8 N33        17.8990    0.8220   22.3270 N.am   307  G81307      0.0000
      9 C37        17.2030   -0.3840   21.8720 C.3    307  G81307      0.0000
     10 C41        18.2760   -1.3110   21.3080 C.3    307  G81307      0.0000
     11 C51        18.8140   -0.5990   20.0870 C.ar   307  G81307      0.0000
     12 C53        19.9530    0.2110   20.1900 C.ar   307  G81307      0.0000
     13 C7         20.4450    0.8800   19.0710 C.ar   307  G81307      0.0000
     14 C9         19.7790    0.7470   17.8520 C.ar   307  G81307      0.0000
     15 C11        18.6360   -0.0550   17.7370 C.ar   307  G81307      0.0000
     16 C55        18.1510   -0.7280   18.8610 C.ar   307  G81307      0.0000
     17 C39        16.4980   -0.9500   23.0680 C.2    307  G81307      0.0000
     18 O47        17.0470   -0.8680   24.1640 O.2    307  G81307      0.0000
     19 N49        15.2780   -1.4750   22.8910 N.am   307  G81307      0.0000
     20 C57        14.5790   -2.0170   24.0690 C.3    307  G81307      0.0000
     21 C59        13.2560   -1.2560   24.2830 C.3    307  G81307      0.0000
     22 C61        13.4860    0.2240   24.5600 C.3    307  G81307      0.0000
     23 C73        14.0830    0.4950   25.9590 C.3    307  G81307      0.0000
     24 C71        13.3370    1.6870   26.5790 C.3    307  G81307      0.0000
     25 N69        12.1870    1.7170   25.6990 N.am   307  G81307      0.0000
     26 C65        12.2240    1.0210   24.5710 C.2    307  G81307      0.0000
     27 O66        11.4170    1.0820   23.6410 O.2    307  G81307      0.0000
     28 C63        14.4370   -3.5270   23.8630 C.3    307  G81307      0.0000
     29 C82        15.7100   -4.2230   24.3960 C.3    307  G81307      0.0000
     30 C84        16.2200   -3.7370   25.7740 C.2    307  G81307      0.0000
     31 O88        15.4500   -3.4280   26.6700 O.2    307  G81307      0.0000
     32 O86        17.6600   -3.6380   26.0860 O.3    307  G81307      0.0000
     33 C3         18.1570   -3.2170   27.3750 C.3    307  G81307      0.0000
     34 C5         19.2020   -4.1840   27.8980 C.3    307  G81307      0.0000
     35 H          16.7111    6.0226   24.4096 H      307  G81307      0.0000
     36 H          16.0250    5.0987   23.0403 H      307  G81307      0.0000
     37 H          17.6555    5.8147   22.9048 H      307  G81307      0.0000
     38 H          18.6947    5.0410   25.7564 H      307  G81307      0.0000
     39 H          19.6134    4.8385   24.2349 H      307  G81307      0.0000
     40 H          19.3583    3.4392   25.3163 H      307  G81307      0.0000
     41 H          16.3711    4.0194   26.0085 H      307  G81307      0.0000
     42 H          16.9604    2.4006   25.5317 H      307  G81307      0.0000
     43 H          15.5992    3.1572   24.6501 H      307  G81307      0.0000
     44 H          18.9089    0.8288   22.5107 H      307  G81307      0.0000
     45 H          16.4609   -0.1420   21.0749 H      307  G81307      0.0000
     46 H          17.8324   -2.2918   21.0232 H      307  G81307      0.0000
     47 H          19.0771   -1.5194   22.0520 H      307  G81307      0.0000
     48 H          20.4872    0.3194   21.1487 H      307  G81307      0.0000
     49 H          21.3474    1.5099   19.1475 H      307  G81307      0.0000
     50 H          20.1596    1.2799   16.9637 H      307  G81307      0.0000
     51 H          18.1217   -0.1519   16.7658 H      307  G81307      0.0000
     52 H          17.2486   -1.3564   18.7715 H      307  G81307      0.0000
     53 H          14.8319   -1.4916   21.9637 H      307  G81307      0.0000
     54 H          15.1657   -1.8308   24.9922 H      307  G81307      0.0000
     55 H          12.6831   -1.7138   25.1219 H      307  G81307      0.0000
     56 H          12.6250   -1.3740   23.3718 H      307  G81307      0.0000
     57 H          14.1483    0.6670   23.7806 H      307  G81307      0.0000
     58 H          15.1783    0.6843   25.9076 H      307  G81307      0.0000
     59 H          13.9406   -0.3956   26.6138 H      307  G81307      0.0000
     60 H          13.9333    2.6239   26.5136 H      307  G81307      0.0000
     61 H          13.0662    1.5004   27.6420 H      307  G81307      0.0000
     62 H          11.3621    2.2946   25.9096 H      307  G81307      0.0000
     63 H          14.2440   -3.7864   22.7978 H      307  G81307      0.0000
     64 H          13.5645   -3.8989   24.4484 H      307  G81307      0.0000
     65 H          16.5313   -4.0871   23.6571 H      307  G81307      0.0000
     66 H          15.5281   -5.3194   24.4537 H      307  G81307      0.0000
     67 H          17.3395   -3.1326   28.1204 H      307  G81307      0.0000
     68 H          18.6041   -2.2048   27.2815 H      307  G81307      0.0000
     69 H          19.5994   -3.8620   28.8853 H      307  G81307      0.0000
     70 H          20.0670   -4.2650   27.2043 H      307  G81307      0.0000
     71 H          18.7835   -5.2059   28.0274 H      307  G81307      0.0000
@<TRIPOS>BOND
     1     1     2    2
     2     2     3    1
     3     2     8    1
     4     3     4    1
     5     4     5    1
     6     4     6    1
     7     4     7    1
     8     5    35    1
     9     5    36    1
    10     5    37    1
    11     6    38    1
    12     6    39    1
    13     6    40    1
    14     7    41    1
    15     7    42    1
    16     7    43    1
    17     8     9    1
    18     8    44    1
    19     9    10    1
    20     9    17    1
    21     9    45    1
    22    10    11    1
    23    10    46    1
    24    10    47    1
    25    11    12   ar
    26    11    16   ar
    27    12    13   ar
    28    12    48    1
    29    13    14   ar
    30    13    49    1
    31    14    15   ar
    32    14    50    1
    33    15    16   ar
    34    15    51    1
    35    16    52    1
    36    17    18    2
    37    17    19    1
    38    19    20    1
    39    19    53    1
    40    20    21    1
    41    20    28    1
    42    20    54    1
    43    21    22    1
    44    21    55    1
    45    21    56    1
    46    22    23    1
    47    22    26    1
    48    22    57    1
    49    23    24    1
    50    23    58    1
    51    23    59    1
    52    24    25    1
    53    24    60    1
    54    24    61    1
    55    25    26    1
    56    25    62    1
    57    26    27    2
    58    28    29    1
    59    28    63    1
    60    28    64    1
    61    29    30    1
    62    29    65    1
    63    29    66    1
    64    30    31    2
    65    30    32    1
    66    32    33    1
    67    33    34    1
    68    33    67    1
    69    33    68    1
    70    34    69    1
    71    34    70    1
    72    34    71    1

