G81_2_A_307
  -ISIS-            3D

 71 72  0  0  0  0  0  0  0  0  1 V2000
  -29.5000    1.9740   29.4050 O   0  0  0  0  0
  -30.7120    1.9480   29.1880 C   0  0  0  0  0
  -31.4320    3.1520   28.7000 O   0  0  0  0  0
  -31.0820    4.0070   27.5850 C   0  0  0  0  0
  -30.4700    5.2990   28.1420 C   0  0  0  0  0
  -32.3800    4.3500   26.8420 C   0  0  0  0  0
  -30.0850    3.3650   26.6120 C   0  0  0  0  0
  -31.4070    0.8220   29.4190 N   0  0  0  0  0
  -30.7110   -0.3840   29.8740 C   0  0  0  0  0
  -31.7840   -1.3110   30.4380 C   0  0  0  0  0
  -32.3220   -0.5990   31.6590 C   0  0  0  0  0
  -33.4610    0.2110   31.5560 C   0  0  0  0  0
  -33.9530    0.8800   32.6750 C   0  0  0  0  0
  -33.2870    0.7470   33.8940 C   0  0  0  0  0
  -32.1440   -0.0550   34.0090 C   0  0  0  0  0
  -31.6590   -0.7280   32.8850 C   0  0  0  0  0
  -30.0060   -0.9500   28.6780 C   0  0  0  0  0
  -30.5550   -0.8680   27.5820 O   0  0  0  0  0
  -28.7860   -1.4750   28.8550 N   0  0  0  0  0
  -28.0870   -2.0170   27.6770 C   0  0  0  0  0
  -26.7640   -1.2560   27.4630 C   0  0  0  0  0
  -26.9940    0.2240   27.1860 C   0  0  0  0  0
  -27.5910    0.4950   25.7870 C   0  0  0  0  0
  -26.8450    1.6870   25.1670 C   0  0  0  0  0
  -25.6950    1.7170   26.0470 N   0  0  0  0  0
  -25.7320    1.0210   27.1750 C   0  0  0  0  0
  -24.9250    1.0820   28.1050 O   0  0  0  0  0
  -27.9450   -3.5270   27.8830 C   0  0  0  0  0
  -29.2180   -4.2230   27.3500 C   0  0  0  0  0
  -29.7280   -3.7370   25.9720 C   0  0  0  0  0
  -28.9580   -3.4280   25.0760 O   0  0  0  0  0
  -31.1680   -3.6380   25.6600 O   0  0  0  0  0
  -31.6650   -3.2170   24.3710 C   0  0  0  0  0
  -32.7100   -4.1840   23.8480 C   0  0  0  0  0
  -30.2191    6.0226   27.3364 H   0  0  0  0  0
  -29.5330    5.0987   28.7057 H   0  0  0  0  0
  -31.1635    5.8147   28.8412 H   0  0  0  0  0
  -32.2027    5.0410   25.9896 H   0  0  0  0  0
  -33.1214    4.8385   27.5111 H   0  0  0  0  0
  -32.8663    3.4392   26.4297 H   0  0  0  0  0
  -29.8791    4.0194   25.7375 H   0  0  0  0  0
  -30.4684    2.4006   26.2143 H   0  0  0  0  0
  -29.1072    3.1572   27.0959 H   0  0  0  0  0
  -32.4169    0.8288   29.2353 H   0  0  0  0  0
  -29.9689   -0.1420   30.6711 H   0  0  0  0  0
  -31.3404   -2.2918   30.7228 H   0  0  0  0  0
  -32.5851   -1.5194   29.6940 H   0  0  0  0  0
  -33.9952    0.3194   30.5973 H   0  0  0  0  0
  -34.8554    1.5099   32.5985 H   0  0  0  0  0
  -33.6676    1.2799   34.7823 H   0  0  0  0  0
  -31.6297   -0.1519   34.9802 H   0  0  0  0  0
  -30.7566   -1.3564   32.9745 H   0  0  0  0  0
  -28.3399   -1.4916   29.7823 H   0  0  0  0  0
  -28.6737   -1.8308   26.7538 H   0  0  0  0  0
  -26.1911   -1.7138   26.6241 H   0  0  0  0  0
  -26.1330   -1.3740   28.3742 H   0  0  0  0  0
  -27.6563    0.6670   27.9655 H   0  0  0  0  0
  -28.6863    0.6843   25.8384 H   0  0  0  0  0
  -27.4486   -0.3956   25.1322 H   0  0  0  0  0
  -27.4413    2.6239   25.2324 H   0  0  0  0  0
  -26.5742    1.5004   24.1040 H   0  0  0  0  0
  -24.8701    2.2946   25.8364 H   0  0  0  0  0
  -27.7520   -3.7864   28.9482 H   0  0  0  0  0
  -27.0725   -3.8989   27.2976 H   0  0  0  0  0
  -30.0393   -4.0871   28.0889 H   0  0  0  0  0
  -29.0361   -5.3194   27.2923 H   0  0  0  0  0
  -30.8475   -3.1326   23.6256 H   0  0  0  0  0
  -32.1121   -2.2048   24.4645 H   0  0  0  0  0
  -33.1074   -3.8620   22.8607 H   0  0  0  0  0
  -33.5750   -4.2650   24.5417 H   0  0  0  0  0
  -32.2915   -5.2059   23.7186 H   0  0  0  0  0
  1  2  2  0  0  0
  2  3  1  0  0  0
  2  8  1  0  0  0
  3  4  1  0  0  0
  4  5  1  0  0  0
  4  6  1  0  0  0
  4  7  1  0  0  0
  5 35  1  0  0  0
  5 36  1  0  0  0
  5 37  1  0  0  0
  6 38  1  0  0  0
  6 39  1  0  0  0
  6 40  1  0  0  0
  7 41  1  0  0  0
  7 42  1  0  0  0
  7 43  1  0  0  0
  8  9  1  0  0  0
  8 44  1  0  0  0
  9 10  1  0  0  0
  9 17  1  0  0  0
  9 45  1  0  0  0
 10 11  1  0  0  0
 10 46  1  0  0  0
 10 47  1  0  0  0
 11 12  2  0  0  0
 11 16  1  0  0  0
 12 13  1  0  0  0
 12 48  1  0  0  0
 13 14  2  0  0  0
 13 49  1  0  0  0
 14 15  1  0  0  0
 14 50  1  0  0  0
 15 16  2  0  0  0
 15 51  1  0  0  0
 16 52  1  0  0  0
 17 18  2  0  0  0
 17 19  1  0  0  0
 19 20  1  0  0  0
 19 53  1  0  0  0
 20 21  1  0  0  0
 20 28  1  0  0  0
 20 54  1  0  0  0
 21 22  1  0  0  0
 21 55  1  0  0  0
 21 56  1  0  0  0
 22 23  1  0  0  0
 22 26  1  0  0  0
 22 57  1  0  0  0
 23 24  1  0  0  0
 23 58  1  0  0  0
 23 59  1  0  0  0
 24 25  1  0  0  0
 24 60  1  0  0  0
 24 61  1  0  0  0
 25 26  1  0  0  0
 25 62  1  0  0  0
 26 27  2  0  0  0
 28 29  1  0  0  0
 28 63  1  0  0  0
 28 64  1  0  0  0
 29 30  1  0  0  0
 29 65  1  0  0  0
 29 66  1  0  0  0
 30 31  2  0  0  0
 30 32  1  0  0  0
 32 33  1  0  0  0
 33 34  1  0  0  0
 33 67  1  0  0  0
 33 68  1  0  0  0
 34 69  1  0  0  0
 34 70  1  0  0  0
 34 71  1  0  0  0
M  END
$$$$
