3BL_1_A_401
  -ISIS-            3D

 69 73  0  0  0  0  0  0  0  0  1 V2000
  -27.5370  -43.3130    0.9660 C   0  0  0  0  0
  -20.8330  -45.0940    1.0620 O   0  0  0  0  0
  -27.3390  -44.6640    1.1520 C   0  0  0  0  0
  -28.2490  -45.5930    0.6960 C   0  0  0  0  0
  -29.3660  -45.1490    0.0460 C   0  0  0  0  0
  -30.3740  -46.0720   -0.4860 C   0  0  0  0  0
  -31.0330  -45.6960   -1.6280 C   0  0  0  0  0
  -21.1690  -44.4050    2.0000 C   0  0  0  0  0
  -21.3890  -42.9200    1.8210 C   0  0  0  0  0
  -20.0340  -42.2660    2.0130 C   0  0  0  0  0
  -19.7540  -41.0340    1.2350 C   0  0  0  0  0
  -18.6940  -40.2660    1.4170 N   0  0  0  0  0
  -18.7440  -39.2730    0.5510 C   0  0  0  0  0
  -19.8390  -39.3950   -0.1740 N   0  0  0  0  0
  -20.4830  -40.4860    0.2240 C   0  0  0  0  0
  -22.2870  -42.4000    2.8650 N   0  0  0  0  0
  -23.6330  -42.9840    2.8290 C   0  0  0  0  0
  -24.6630  -41.8660    2.8720 C   0  0  0  0  0
  -24.7590  -41.2230    4.2470 C   0  0  0  0  0
  -25.2810  -42.1930    5.2730 C   0  0  0  0  0
  -25.3990  -41.5450    6.6240 C   0  0  0  0  0
  -26.0040  -42.4880    7.6370 C   0  0  0  0  0
  -27.3230  -43.0980    7.1800 C   0  0  0  0  0
  -27.1840  -43.6920    5.8070 C   0  0  0  0  0
  -26.6100  -42.7130    4.8150 C   0  0  0  0  0
  -26.3520  -43.4820    3.5550 C   0  0  0  0  0
  -25.9170  -42.5390    2.5710 N   0  0  0  0  0
  -26.5310  -42.3090    1.4480 C   0  0  0  0  0
  -26.2900  -41.3580    0.7780 O   0  0  0  0  0
  -28.6550  -42.8920    0.3120 C   0  0  0  0  0
  -29.5660  -43.8170   -0.1460 C   0  0  0  0  0
  -30.6380  -47.2690    0.1130 C   0  0  0  0  0
  -31.5890  -48.0960   -0.4390 C   0  0  0  0  0
  -32.2580  -47.7160   -1.5740 C   0  0  0  0  0
  -31.9800  -46.5160   -2.1720 C   0  0  0  0  0
  -26.4238  -45.0427    1.6357 H   0  0  0  0  0
  -28.0560  -46.6676    0.8460 H   0  0  0  0  0
  -30.8165  -44.7496   -2.1490 H   0  0  0  0  0
  -21.2755  -44.8571    3.0169 H   0  0  0  0  0
  -21.8006  -42.7283    0.8053 H   0  0  0  0  0
  -19.2375  -42.9902    1.7224 H   0  0  0  0  0
  -19.8592  -42.0627    3.0944 H   0  0  0  0  0
  -18.0467  -38.4403    0.3971 H   0  0  0  0  0
  -20.2248  -38.5779   -1.1321 H   0  0  0  0  0
  -21.4212  -40.7660   -0.2691 H   0  0  0  0  0
  -22.3275  -41.3885    2.7729 H   0  0  0  0  0
  -23.7114  -43.7202    3.6531 H   0  0  0  0  0
  -23.7648  -43.5571    1.8825 H   0  0  0  0  0
  -24.4120  -41.0881    2.1134 H   0  0  0  0  0
  -25.4357  -40.3387    4.1844 H   0  0  0  0  0
  -23.7659  -40.8273    4.5594 H   0  0  0  0  0
  -24.5625  -43.0391    5.3867 H   0  0  0  0  0
  -26.0334  -40.6308    6.5534 H   0  0  0  0  0
  -24.3980  -41.2056    6.9791 H   0  0  0  0  0
  -26.1554  -41.9544    8.6043 H   0  0  0  0  0
  -25.2796  -43.3091    7.8498 H   0  0  0  0  0
  -28.1100  -42.3081    7.1672 H   0  0  0  0  0
  -27.6618  -43.8719    7.9072 H   0  0  0  0  0
  -28.1829  -44.0488    5.4619 H   0  0  0  0  0
  -26.5369  -44.5980    5.8748 H   0  0  0  0  0
  -27.3343  -41.8814    4.6401 H   0  0  0  0  0
  -27.3287  -43.9431    3.2960 H   0  0  0  0  0
  -25.6477  -44.3279    3.7072 H   0  0  0  0  0
  -28.8343  -41.8160    0.1487 H   0  0  0  0  0
  -30.4643  -43.4286   -0.6519 H   0  0  0  0  0
  -30.1141  -47.5831    1.0306 H   0  0  0  0  0
  -31.8159  -49.0666    0.0347 H   0  0  0  0  0
  -33.0226  -48.3822   -2.0095 H   0  0  0  0  0
  -32.5152  -46.2168   -3.0896 H   0  0  0  0  0
  1  3  2  0  0  0
  1 28  1  0  0  0
  1 30  1  0  0  0
  2  8  2  0  0  0
  3  4  1  0  0  0
  3 36  1  0  0  0
  4  5  2  0  0  0
  4 37  1  0  0  0
  5  6  1  0  0  0
  5 31  1  0  0  0
  6  7  2  0  0  0
  6 32  1  0  0  0
  7 35  1  0  0  0
  7 38  1  0  0  0
  8  9  1  0  0  0
  8 39  1  0  0  0
  9 10  1  0  0  0
  9 16  1  0  0  0
  9 40  1  0  0  0
 10 11  1  0  0  0
 10 41  1  0  0  0
 10 42  1  0  0  0
 11 12  2  0  0  0
 11 15  1  0  0  0
 12 13  1  0  0  0
 13 14  1  0  0  0
 13 43  1  0  0  0
 14 15  1  0  0  0
 14 44  1  0  0  0
 15 45  1  0  0  0
 16 17  1  0  0  0
 16 46  1  0  0  0
 17 18  1  0  0  0
 17 47  1  0  0  0
 17 48  1  0  0  0
 18 19  1  0  0  0
 18 27  1  0  0  0
 18 49  1  0  0  0
 19 20  1  0  0  0
 19 50  1  0  0  0
 19 51  1  0  0  0
 20 21  1  0  0  0
 20 25  1  0  0  0
 20 52  1  0  0  0
 21 22  1  0  0  0
 21 53  1  0  0  0
 21 54  1  0  0  0
 22 23  1  0  0  0
 22 55  1  0  0  0
 22 56  1  0  0  0
 23 24  1  0  0  0
 23 57  1  0  0  0
 23 58  1  0  0  0
 24 25  1  0  0  0
 24 59  1  0  0  0
 24 60  1  0  0  0
 25 26  1  0  0  0
 25 61  1  0  0  0
 26 27  1  0  0  0
 26 62  1  0  0  0
 26 63  1  0  0  0
 27 28  1  0  0  0
 28 29  2  0  0  0
 30 31  2  0  0  0
 30 64  1  0  0  0
 31 65  1  0  0  0
 32 33  2  0  0  0
 32 66  1  0  0  0
 33 34  1  0  0  0
 33 67  1  0  0  0
 34 35  2  0  0  0
 34 68  1  0  0  0
 35 69  1  0  0  0
M  END
$$$$
