@<TRIPOS>MOLECULE
3BL_2_A_401
 69 73 0 0 0
SMALL
NO_CHARGES

@<TRIPOS>ATOM
      1 C1         27.5370  -43.3130   -0.9660 C.ar   401  3BL401      0.0000
      2 O1         20.8330  -45.0940   -1.0620 O.2    401  3BL401      0.0000
      3 C2         27.3390  -44.6640   -1.1520 C.ar   401  3BL401      0.0000
      4 C3         28.2490  -45.5930   -0.6960 C.ar   401  3BL401      0.0000
      5 C4         29.3660  -45.1490   -0.0460 C.ar   401  3BL401      0.0000
      6 C5         30.3740  -46.0720    0.4860 C.ar   401  3BL401      0.0000
      7 C6         31.0330  -45.6960    1.6280 C.ar   401  3BL401      0.0000
      8 C24        21.1690  -44.4050   -2.0000 C.2    401  3BL401      0.0000
      9 C23        21.3890  -42.9200   -1.8210 C.3    401  3BL401      0.0000
     10 C25        20.0340  -42.2660   -2.0130 C.3    401  3BL401      0.0000
     11 C26        19.7540  -41.0340   -1.2350 C.ar   401  3BL401      0.0000
     12 N3         18.6940  -40.2660   -1.4170 N.ar   401  3BL401      0.0000
     13 C28        18.7440  -39.2730   -0.5510 C.ar   401  3BL401      0.0000
     14 N2         19.8390  -39.3950    0.1740 N.ar   401  3BL401      0.0000
     15 C27        20.4830  -40.4860   -0.2240 C.ar   401  3BL401      0.0000
     16 N1         22.2870  -42.4000   -2.8650 N.3    401  3BL401      0.0000
     17 C22        23.6330  -42.9840   -2.8290 C.3    401  3BL401      0.0000
     18 C21        24.6630  -41.8660   -2.8720 C.3    401  3BL401      0.0000
     19 C20        24.7590  -41.2230   -4.2470 C.3    401  3BL401      0.0000
     20 C19        25.2810  -42.1930   -5.2730 C.3    401  3BL401      0.0000
     21 C18        25.3990  -41.5450   -6.6240 C.3    401  3BL401      0.0000
     22 C17        26.0040  -42.4880   -7.6370 C.3    401  3BL401      0.0000
     23 C16        27.3230  -43.0980   -7.1800 C.3    401  3BL401      0.0000
     24 C15        27.1840  -43.6920   -5.8070 C.3    401  3BL401      0.0000
     25 C14        26.6100  -42.7130   -4.8150 C.3    401  3BL401      0.0000
     26 C13        26.3520  -43.4820   -3.5550 C.3    401  3BL401      0.0000
     27 N          25.9170  -42.5390   -2.5710 N.am   401  3BL401      0.0000
     28 C          26.5310  -42.3090   -1.4480 C.2    401  3BL401      0.0000
     29 O          26.2900  -41.3580   -0.7780 O.2    401  3BL401      0.0000
     30 C12        28.6550  -42.8920   -0.3120 C.ar   401  3BL401      0.0000
     31 C11        29.5660  -43.8170    0.1460 C.ar   401  3BL401      0.0000
     32 C10        30.6380  -47.2690   -0.1130 C.ar   401  3BL401      0.0000
     33 C9         31.5890  -48.0960    0.4390 C.ar   401  3BL401      0.0000
     34 C8         32.2580  -47.7160    1.5740 C.ar   401  3BL401      0.0000
     35 C7         31.9800  -46.5160    2.1720 C.ar   401  3BL401      0.0000
     36 H          26.4238  -45.0427   -1.6357 H      401  3BL401      0.0000
     37 H          28.0560  -46.6676   -0.8460 H      401  3BL401      0.0000
     38 H          30.8165  -44.7496    2.1490 H      401  3BL401      0.0000
     39 H          21.2755  -44.8571   -3.0169 H      401  3BL401      0.0000
     40 H          21.8006  -42.7283   -0.8053 H      401  3BL401      0.0000
     41 H          19.2375  -42.9902   -1.7224 H      401  3BL401      0.0000
     42 H          19.8592  -42.0627   -3.0944 H      401  3BL401      0.0000
     43 H          18.0467  -38.4403   -0.3971 H      401  3BL401      0.0000
     44 H          20.2248  -38.5779    1.1321 H      401  3BL401      0.0000
     45 H          21.4212  -40.7660    0.2691 H      401  3BL401      0.0000
     46 H          22.3275  -41.3885   -2.7729 H      401  3BL401      0.0000
     47 H          23.7114  -43.7202   -3.6531 H      401  3BL401      0.0000
     48 H          23.7648  -43.5571   -1.8825 H      401  3BL401      0.0000
     49 H          24.4120  -41.0881   -2.1134 H      401  3BL401      0.0000
     50 H          25.4357  -40.3387   -4.1844 H      401  3BL401      0.0000
     51 H          23.7659  -40.8273   -4.5594 H      401  3BL401      0.0000
     52 H          24.5625  -43.0391   -5.3867 H      401  3BL401      0.0000
     53 H          26.0334  -40.6308   -6.5534 H      401  3BL401      0.0000
     54 H          24.3980  -41.2056   -6.9791 H      401  3BL401      0.0000
     55 H          26.1554  -41.9544   -8.6043 H      401  3BL401      0.0000
     56 H          25.2796  -43.3091   -7.8498 H      401  3BL401      0.0000
     57 H          28.1100  -42.3081   -7.1672 H      401  3BL401      0.0000
     58 H          27.6618  -43.8719   -7.9072 H      401  3BL401      0.0000
     59 H          28.1829  -44.0488   -5.4619 H      401  3BL401      0.0000
     60 H          26.5369  -44.5980   -5.8748 H      401  3BL401      0.0000
     61 H          27.3343  -41.8814   -4.6401 H      401  3BL401      0.0000
     62 H          27.3287  -43.9431   -3.2960 H      401  3BL401      0.0000
     63 H          25.6477  -44.3279   -3.7072 H      401  3BL401      0.0000
     64 H          28.8343  -41.8160   -0.1487 H      401  3BL401      0.0000
     65 H          30.4643  -43.4286    0.6519 H      401  3BL401      0.0000
     66 H          30.1141  -47.5831   -1.0306 H      401  3BL401      0.0000
     67 H          31.8159  -49.0666   -0.0347 H      401  3BL401      0.0000
     68 H          33.0226  -48.3822    2.0095 H      401  3BL401      0.0000
     69 H          32.5152  -46.2168    3.0896 H      401  3BL401      0.0000
@<TRIPOS>BOND
     1     1     3   ar
     2     1    28    1
     3     1    30   ar
     4     2     8    2
     5     3     4   ar
     6     3    36    1
     7     4     5   ar
     8     4    37    1
     9     5     6    1
    10     5    31   ar
    11     6     7   ar
    12     6    32   ar
    13     7    35   ar
    14     7    38    1
    15     8     9    1
    16     8    39    1
    17     9    10    1
    18     9    16    1
    19     9    40    1
    20    10    11    1
    21    10    41    1
    22    10    42    1
    23    11    12   ar
    24    11    15   ar
    25    12    13   ar
    26    13    14   ar
    27    13    43    1
    28    14    15   ar
    29    14    44    1
    30    15    45    1
    31    16    17    1
    32    16    46    1
    33    17    18    1
    34    17    47    1
    35    17    48    1
    36    18    19    1
    37    18    27    1
    38    18    49    1
    39    19    20    1
    40    19    50    1
    41    19    51    1
    42    20    21    1
    43    20    25    1
    44    20    52    1
    45    21    22    1
    46    21    53    1
    47    21    54    1
    48    22    23    1
    49    22    55    1
    50    22    56    1
    51    23    24    1
    52    23    57    1
    53    23    58    1
    54    24    25    1
    55    24    59    1
    56    24    60    1
    57    25    26    1
    58    25    61    1
    59    26    27    1
    60    26    62    1
    61    26    63    1
    62    27    28    1
    63    28    29    2
    64    30    31   ar
    65    30    64    1
    66    31    65    1
    67    32    33   ar
    68    32    66    1
    69    33    34   ar
    70    33    67    1
    71    34    35   ar
    72    34    68    1
    73    35    69    1

