@<TRIPOS>MOLECULE
DMS_2_A_501
 10 9 0 0 0
SMALL
NO_CHARGES

@<TRIPOS>ATOM
      1 S          -6.8250  -28.3440  -21.4750 S.o    501  DMS501      0.0000
      2 O          -7.6440  -27.3770  -22.2700 O.2    501  DMS501      0.0000
      3 C1         -6.0460  -27.4830  -20.0800 C.3    501  DMS501      0.0000
      4 C2         -5.3420  -28.8110  -22.4110 C.3    501  DMS501      0.0000
      5 H          -5.3904  -28.1873  -19.5283 H      501  DMS501      0.0000
      6 H          -6.8349  -27.1074  -19.3968 H      501  DMS501      0.0000
      7 H          -5.4454  -26.6280  -20.4528 H      501  DMS501      0.0000
      8 H          -4.7070  -29.4776  -21.7924 H      501  DMS501      0.0000
      9 H          -4.7697  -27.9020  -22.6884 H      501  DMS501      0.0000
     10 H          -5.6465  -29.3486  -23.3322 H      501  DMS501      0.0000
@<TRIPOS>BOND
     1     1     2    2
     2     1     3    1
     3     1     4    1
     4     3     5    1
     5     3     6    1
     6     3     7    1
     7     4     8    1
     8     4     9    1
     9     4    10    1

