@<TRIPOS>MOLECULE
DMS_1_A_502
 10 9 0 0 0
SMALL
NO_CHARGES

@<TRIPOS>ATOM
      1 S           6.1760   -0.7380   -6.2660 S.o    502  DMS502      0.0000
      2 O           7.0170   -0.4860   -7.4740 O.2    502  DMS502      0.0000
      3 C1          7.2140   -0.6500   -4.7790 C.3    502  DMS502      0.0000
      4 C2          5.6890   -2.4830   -6.2030 C.3    502  DMS502      0.0000
      5 H           6.6044   -0.8964   -3.8857 H      502  DMS502      0.0000
      6 H           7.6160    0.3785   -4.6745 H      502  DMS502      0.0000
      7 H           8.0562   -1.3668   -4.8650 H      502  DMS502      0.0000
      8 H           5.1210   -2.6766   -5.2702 H      502  DMS502      0.0000
      9 H           6.5918   -3.1270   -6.2302 H      502  DMS502      0.0000
     10 H           5.0462   -2.7147   -7.0767 H      502  DMS502      0.0000
@<TRIPOS>BOND
     1     1     2    2
     2     1     3    1
     3     1     4    1
     4     3     5    1
     5     3     6    1
     6     3     7    1
     7     4     8    1
     8     4     9    1
     9     4    10    1

