DMS_1_A_506
  -ISIS-            3D

 10  9  0  0  0  0  0  0  0  0  1 V2000
   20.6730  -16.1140    5.5660 S   0  0  0  0  0
   20.9110  -15.1530    4.4460 O   0  0  0  0  0
   20.8720  -17.8100    4.9540 C   0  0  0  0  0
   22.0580  -16.0400    6.7340 C   0  0  0  0  0
   20.7633  -18.5237    5.7961 H   0  0  0  0  0
   21.8735  -17.9285    4.4919 H   0  0  0  0  0
   20.0904  -18.0188    4.1952 H   0  0  0  0  0
   21.9159  -16.8021    7.5272 H   0  0  0  0  0
   22.0919  -15.0328    7.1973 H   0  0  0  0  0
   23.0114  -16.2310    6.2001 H   0  0  0  0  0
  1  2  2  0  0  0
  1  3  1  0  0  0
  1  4  1  0  0  0
  3  5  1  0  0  0
  3  6  1  0  0  0
  3  7  1  0  0  0
  4  8  1  0  0  0
  4  9  1  0  0  0
  4 10  1  0  0  0
M  END
$$$$
