IMD_1_A_505
  -ISIS-            3D

  9  9  0  0  0  0  0  0  0  0  1 V2000
    7.7100  -21.7710   -1.4650 N   0  0  0  0  0
    6.8680  -22.8190   -1.3130 C   0  0  0  0  0
    5.6160  -22.3440   -1.1330 N   0  0  0  0  0
    5.6640  -20.9960   -1.1730 C   0  0  0  0  0
    6.9880  -20.6340   -1.3810 C   0  0  0  0  0
    8.7241  -21.8327   -1.6176 H   0  0  0  0  0
    7.0644  -23.8988   -1.3180 H   0  0  0  0  0
    4.7492  -20.4051   -1.0486 H   0  0  0  0  0
    7.3896  -19.6134   -1.4649 H   0  0  0  0  0
  1  2  2  0  0  0
  1  5  1  0  0  0
  1  6  1  0  0  0
  2  3  1  0  0  0
  2  7  1  0  0  0
  3  4  1  0  0  0
  4  5  1  0  0  0
  4  8  1  0  0  0
  5  9  1  0  0  0
M  END
$$$$
