DMS_2_A_404
  -ISIS-            3D

 10  9  0  0  0  0  0  0  0  0  1 V2000
   -5.8300    0.2580  -18.3730 S   0  0  0  0  0
   -6.9610    0.8280  -17.5640 O   0  0  0  0  0
   -4.9400    1.5950  -19.2320 C   0  0  0  0  0
   -6.5640   -0.5770  -19.8080 C   0  0  0  0  0
   -4.1746    1.1580  -19.9054 H   0  0  0  0  0
   -4.4408    2.2412  -18.4814 H   0  0  0  0  0
   -5.6546    2.2032  -19.8236 H   0  0  0  0  0
   -5.7582   -0.9481  -20.4737 H   0  0  0  0  0
   -7.2117    0.1302  -20.3656 H   0  0  0  0  0
   -7.1732   -1.4358  -19.4591 H   0  0  0  0  0
  1  2  2  0  0  0
  1  3  1  0  0  0
  1  4  1  0  0  0
  3  5  1  0  0  0
  3  6  1  0  0  0
  3  7  1  0  0  0
  4  8  1  0  0  0
  4  9  1  0  0  0
  4 10  1  0  0  0
M  END
$$$$
