@<TRIPOS>MOLECULE
DMS_2_A_405
 10 9 0 0 0
SMALL
NO_CHARGES

@<TRIPOS>ATOM
      1 S          -2.2990  -19.4220   -8.4070 S.o    405  DMS405      0.0000
      2 O          -3.5280  -18.8820   -9.0840 O.2    405  DMS405      0.0000
      3 C1         -1.9430  -21.0500   -9.1310 C.3    405  DMS405      0.0000
      4 C2         -0.8170  -18.5030   -8.9140 C.3    405  DMS405      0.0000
      5 H          -1.0103  -21.4561   -8.6889 H      405  DMS405      0.0000
      6 H          -1.8237  -20.9549  -10.2298 H      405  DMS405      0.0000
      7 H          -2.7828  -21.7401   -8.9102 H      405  DMS405      0.0000
      8 H           0.0821  -18.9736   -8.4665 H      405  DMS405      0.0000
      9 H          -0.8976  -17.4555   -8.5582 H      405  DMS405      0.0000
     10 H          -0.7307  -18.5104  -10.0199 H      405  DMS405      0.0000
@<TRIPOS>BOND
     1     1     2    2
     2     1     3    1
     3     1     4    1
     4     3     5    1
     5     3     6    1
     6     3     7    1
     7     4     8    1
     8     4     9    1
     9     4    10    1

