@<TRIPOS>MOLECULE
DMS_1_A_407
 10 9 0 0 0
SMALL
NO_CHARGES

@<TRIPOS>ATOM
      1 S           7.2290  -21.4440   29.0590 S.o    407  DMS407      0.0000
      2 O           8.1600  -20.6550   29.9170 O.2    407  DMS407      0.0000
      3 C1          5.5150  -21.1730   29.5910 C.3    407  DMS407      0.0000
      4 C2          7.3860  -23.2000   29.4810 C.3    407  DMS407      0.0000
      5 H           4.8357  -21.8220   29.0014 H      407  DMS407      0.0000
      6 H           5.2437  -20.1110   29.4209 H      407  DMS407      0.0000
      7 H           5.4133  -21.4092   30.6701 H      407  DMS407      0.0000
      8 H           6.6494  -23.7898   28.8981 H      407  DMS407      0.0000
      9 H           7.2051  -23.3451   30.5658 H      407  DMS407      0.0000
     10 H           8.4097  -23.5458   29.2305 H      407  DMS407      0.0000
@<TRIPOS>BOND
     1     1     2    2
     2     1     3    1
     3     1     4    1
     4     3     5    1
     5     3     6    1
     6     3     7    1
     7     4     8    1
     8     4     9    1
     9     4    10    1

