@<TRIPOS>MOLECULE
DMS_1_A_402
 10 9 0 0 0
SMALL
NO_CHARGES

@<TRIPOS>ATOM
      1 S           6.2130   -0.9980   -6.4300 S.o    402  DMS402      0.0000
      2 O           7.2610   -0.7600   -7.4430 O.2    402  DMS402      0.0000
      3 C1          6.9920   -0.8750   -4.7770 C.3    402  DMS402      0.0000
      4 C2          5.7330   -2.7350   -6.3690 C.3    402  DMS402      0.0000
      5 H           6.2396   -1.1035   -3.9947 H      402  DMS402      0.0000
      6 H           7.3702    0.1573   -4.6295 H      402  DMS402      0.0000
      7 H           7.8368   -1.5903   -4.7045 H      402  DMS402      0.0000
      8 H           5.0139   -2.8944   -5.5397 H      402  DMS402      0.0000
      9 H           6.6288   -3.3703   -6.2131 H      402  DMS402      0.0000
     10 H           5.2498   -3.0137   -7.3277 H      402  DMS402      0.0000
@<TRIPOS>BOND
     1     1     2    2
     2     1     3    1
     3     1     4    1
     4     3     5    1
     5     3     6    1
     6     3     7    1
     7     4     8    1
     8     4     9    1
     9     4    10    1

