BME_1_A_202
  -ISIS-            3D

  9  8  0  0  0  0  0  0  0  0  1 V2000
   47.7690  -24.3210    1.4640 C   0  0  0  0  0
   47.3530  -25.7500    1.8260 C   0  0  0  0  0
   47.2890  -23.4070    2.4370 O   0  0  0  0  0
   45.8820  -26.2800    0.9080 S   0  0  0  0  0
   47.4159  -24.0320    0.4512 H   0  0  0  0  0
   48.8794  -24.2556    1.4448 H   0  0  0  0  0
   47.1832  -25.8384    2.9213 H   0  0  0  0  0
   48.1929  -26.4404    1.5880 H   0  0  0  0  0
   47.5174  -22.5283    2.1640 H   0  0  0  0  0
  1  2  1  0  0  0
  1  3  1  0  0  0
  1  5  1  0  0  0
  1  6  1  0  0  0
  2  4  1  0  0  0
  2  7  1  0  0  0
  2  8  1  0  0  0
  3  9  1  0  0  0
M  END
$$$$
