@<TRIPOS>MOLECULE
DMS_1_A_402
 10 9 0 0 0
SMALL
NO_CHARGES

@<TRIPOS>ATOM
      1 S           6.1680   -0.9690   -6.1680 S.o    402  DMS402      0.0000
      2 O           7.1140   -0.8100   -7.2920 O.2    402  DMS402      0.0000
      3 C1          7.1710   -0.8270   -4.7100 C.3    402  DMS402      0.0000
      4 C2          5.8440   -2.6880   -6.0180 C.3    402  DMS402      0.0000
      5 H           6.5709   -1.0802   -3.8122 H      402  DMS402      0.0000
      6 H           7.5312    0.2179   -4.6136 H      402  DMS402      0.0000
      7 H           8.0475   -1.5046   -4.7719 H      402  DMS402      0.0000
      8 H           5.2725   -2.8868   -5.0885 H      402  DMS402      0.0000
      9 H           6.7916   -3.2649   -5.9986 H      402  DMS402      0.0000
     10 H           5.2388   -3.0245   -6.8847 H      402  DMS402      0.0000
@<TRIPOS>BOND
     1     1     2    2
     2     1     3    1
     3     1     4    1
     4     3     5    1
     5     3     6    1
     6     3     7    1
     7     4     8    1
     8     4     9    1
     9     4    10    1

