@<TRIPOS>MOLECULE
AMP_1_A_201
 36 38 0 0 0
SMALL
NO_CHARGES

@<TRIPOS>ATOM
      1 P           9.9490   -9.6750   13.2690 P.3    201  AMP201      0.0000
      2 O1P        10.9490   -9.2590   12.1480 O.co2  201  AMP201     -0.5000
      3 O2P         8.5610   -9.1070   13.0570 O.co2  201  AMP201     -0.5000
      4 O3P         9.9360  -11.1770   13.5710 O.co2  201  AMP201      0.0000
      5 O5'        10.5880   -9.0620   14.6360 O.3    201  AMP201      0.0000
      6 C5'        11.1510   -7.7280   14.6390 C.3    201  AMP201      0.0000
      7 C4'        11.6630   -7.4640   16.0430 C.3    201  AMP201      0.0000
      8 O4'        10.5120   -7.3100   16.9150 O.3    201  AMP201      0.0000
      9 C3'        12.4990   -8.5730   16.6720 C.3    201  AMP201      0.0000
     10 O3'        13.4830   -8.0010   17.5350 O.3    201  AMP201      0.0000
     11 C2'        11.4780   -9.3590   17.5090 C.3    201  AMP201      0.0000
     12 O2'        12.0630  -10.0170   18.6130 O.3    201  AMP201      0.0000
     13 C1'        10.5670   -8.2380   17.9800 C.3    201  AMP201      0.0000
     14 N9          9.1900   -8.5990   18.2830 N.ar   201  AMP201      0.0000
     15 C8          8.4240   -9.6240   17.7740 C.ar   201  AMP201      0.0000
     16 N7          7.1670   -9.5640   18.1520 N.ar   201  AMP201      0.0000
     17 C5          7.0960   -8.4220   18.9460 C.ar   201  AMP201      0.0000
     18 C6          6.0320   -7.7960   19.6380 C.ar   201  AMP201      0.0000
     19 N6          4.7640   -8.2010   19.5940 N.pl3  201  AMP201      0.0000
     20 N1          6.2970   -6.6190   20.2630 N.ar   201  AMP201      0.0000
     21 C2          7.5610   -6.1760   20.2910 C.ar   201  AMP201      0.0000
     22 N3          8.6430   -6.6830   19.6880 N.ar   201  AMP201      0.0000
     23 C4          8.3360   -7.8140   19.0250 C.ar   201  AMP201      0.0000
     24 H          10.3856   -6.9798   14.3456 H      201  AMP201      0.0000
     25 H          11.9911   -7.6684   13.9160 H      201  AMP201      0.0000
     26 H          12.2386   -6.5138   16.0344 H      201  AMP201      0.0000
     27 H          12.9925   -9.2123   15.9119 H      201  AMP201      0.0000
     28 H          13.6775   -8.6516   18.2002 H      201  AMP201      0.0000
     29 H          10.9447  -10.0847   16.8634 H      201  AMP201      0.0000
     30 H          11.3697  -10.4332   19.1081 H      201  AMP201      0.0000
     31 H          11.0000   -7.7450   18.8769 H      201  AMP201      0.0000
     32 H           8.7150  -10.4353   17.0943 H      201  AMP201      0.0000
     33 H           7.7235   -5.2366   20.8467 H      201  AMP201      0.0000
     34 H           4.0892   -7.5929   20.0743 H      201  AMP201      0.0000
     35 H           4.5663   -9.0750   19.0904 H      201  AMP201      0.0000
     36 H           9.5945  -11.7543   12.6599 H      201  AMP201      0.0000
@<TRIPOS>BOND
     1     1     2   ar
     2     1     3   ar
     3     1     4    1
     4     1     5    1
     5     5     6    1
     6     6     7    1
     7     6    24    1
     8     6    25    1
     9     7     8    1
    10     7     9    1
    11     7    26    1
    12     8    13    1
    13     9    10    1
    14     9    11    1
    15     9    27    1
    16    10    28    1
    17    11    12    1
    18    11    13    1
    19    11    29    1
    20    12    30    1
    21    13    14    1
    22    13    31    1
    23    14    15   ar
    24    14    23   ar
    25    15    16   ar
    26    15    32    1
    27    16    17   ar
    28    17    18   ar
    29    17    23   ar
    30    18    19    1
    31    18    20   ar
    32    19    34    1
    33    19    35    1
    34    20    21   ar
    35    21    22   ar
    36    21    33    1
    37    22    23   ar
    38     4    36    1

