@<TRIPOS>MOLECULE
DMS_1_A_402
 10 9 0 0 0
SMALL
NO_CHARGES

@<TRIPOS>ATOM
      1 S          -0.7690    9.2750   -7.5860 S.o    402  DMS402      0.0000
      2 O          -1.9980    8.7540   -6.9790 O.2    402  DMS402      0.0000
      3 C1         -0.3570   10.6230   -6.5550 C.3    402  DMS402      0.0000
      4 C2          0.4650    8.1630   -7.0440 C.3    402  DMS402      0.0000
      5 H           0.6600   10.9908   -6.8017 H      402  DMS402      0.0000
      6 H          -0.3893   10.3271   -5.4862 H      402  DMS402      0.0000
      7 H          -1.0801   11.4480   -6.7197 H      402  DMS402      0.0000
      8 H           1.4698    8.5654   -7.2867 H      402  DMS402      0.0000
      9 H           0.3392    7.1909   -7.5634 H      402  DMS402      0.0000
     10 H           0.3924    7.9958   -5.9496 H      402  DMS402      0.0000
@<TRIPOS>BOND
     1     1     2    2
     2     1     3    1
     3     1     4    1
     4     3     5    1
     5     3     6    1
     6     3     7    1
     7     4     8    1
     8     4     9    1
     9     4    10    1

