@<TRIPOS>MOLECULE
5HN_1_A_201
 14 14 0 0 0
SMALL
NO_CHARGES

@<TRIPOS>ATOM
      1 OAA       -43.6260  -31.0960    3.3090 O.co2  201  5HN201     -0.5000
      2 CAH       -43.9790  -30.0580    2.7130 C.2    201  5HN201      0.0000
      3 OAB       -43.3680  -28.9800    2.9570 O.co2  201  5HN201     -0.5000
      4 CAJ       -45.1410  -30.1280    1.6870 C.ar   201  5HN201      0.0000
      5 CAF       -45.5450  -28.9890    1.0340 C.ar   201  5HN201      0.0000
      6 CAI       -46.5880  -29.1060    0.1500 C.ar   201  5HN201      0.0000
      7 OAC       -46.9680  -27.9220   -0.4970 O.3    201  5HN201      0.0000
      8 CAD       -47.2000  -30.3400   -0.0970 C.ar   201  5HN201      0.0000
      9 NAG       -46.7730  -31.4310    0.5250 N.ar   201  5HN201      0.0000
     10 CAE       -45.7920  -31.3370    1.4110 C.ar   201  5HN201      0.0000
     11 H         -45.0617  -28.0144    1.2086 H      201  5HN201      0.0000
     12 H         -47.6804  -28.0489   -1.1076 H      201  5HN201      0.0000
     13 H         -48.0284  -30.4355   -0.8177 H      201  5HN201      0.0000
     14 H         -45.4825  -32.2632    1.9230 H      201  5HN201      0.0000
@<TRIPOS>BOND
     1     1     2   ar
     2     2     3   ar
     3     2     4    1
     4     4     5   ar
     5     4    10   ar
     6     5     6   ar
     7     5    11    1
     8     6     7    1
     9     6     8   ar
    10     7    12    1
    11     8     9   ar
    12     8    13    1
    13     9    10   ar
    14    10    14    1

