DMS_1_A_408
  -ISIS-            3D

 10  9  0  0  0  0  0  0  0  0  1 V2000
    6.4780  -22.7690   -1.6130 S   0  0  0  0  0
    6.9280  -21.4370   -1.1030 O   0  0  0  0  0
    7.7340  -24.0370   -1.2610 C   0  0  0  0  0
    5.0830  -23.3860   -0.6310 C   0  0  0  0  0
    7.3696  -25.0255   -1.6080 H   0  0  0  0  0
    7.9331  -24.0745   -0.1704 H   0  0  0  0  0
    8.6705  -23.7824   -1.7981 H   0  0  0  0  0
    4.7895  -24.3917   -0.9951 H   0  0  0  0  0
    4.2243  -22.6924   -0.7396 H   0  0  0  0  0
    5.3743  -23.4468    0.4376 H   0  0  0  0  0
  1  2  2  0  0  0
  1  3  1  0  0  0
  1  4  1  0  0  0
  3  5  1  0  0  0
  3  6  1  0  0  0
  3  7  1  0  0  0
  4  8  1  0  0  0
  4  9  1  0  0  0
  4 10  1  0  0  0
M  END
$$$$
