@<TRIPOS>MOLECULE
DMS_2_A_405
 10 9 0 0 0
SMALL
NO_CHARGES

@<TRIPOS>ATOM
      1 S          -7.0720  -28.0620  -21.4290 S.o    405  DMS405      0.0000
      2 O          -8.0600  -27.1780  -22.0930 O.2    405  DMS405      0.0000
      3 C1         -5.7220  -28.4930  -22.5650 C.3    405  DMS405      0.0000
      4 C2         -6.1660  -27.1910  -20.1290 C.3    405  DMS405      0.0000
      5 H          -4.9883  -29.1385  -22.0406 H      405  DMS405      0.0000
      6 H          -5.2204  -27.5685  -22.9174 H      405  DMS405      0.0000
      7 H          -6.1366  -29.0417  -23.4352 H      405  DMS405      0.0000
      8 H          -5.4212  -27.8750  -19.6735 H      405  DMS405      0.0000
      9 H          -6.8781  -26.8536  -19.3485 H      405  DMS405      0.0000
     10 H          -5.6478  -26.3098  -20.5596 H      405  DMS405      0.0000
@<TRIPOS>BOND
     1     1     2    2
     2     1     3    1
     3     1     4    1
     4     3     5    1
     5     3     6    1
     6     3     7    1
     7     4     8    1
     8     4     9    1
     9     4    10    1

