@<TRIPOS>MOLECULE
DMS_2_A_407
 10 9 0 0 0
SMALL
NO_CHARGES

@<TRIPOS>ATOM
      1 S         -20.8220  -15.8260   -5.0500 S.o    407  DMS407      0.0000
      2 O         -20.9160  -16.7960   -3.9130 O.2    407  DMS407      0.0000
      3 C1        -21.4550  -16.6120   -6.5610 C.3    407  DMS407      0.0000
      4 C2        -22.0440  -14.5040   -4.8150 C.3    407  DMS407      0.0000
      5 H         -21.4482  -15.8769   -7.3915 H      407  DMS407      0.0000
      6 H         -22.4901  -16.9729   -6.3912 H      407  DMS407      0.0000
      7 H         -20.8045  -17.4703   -6.8265 H      407  DMS407      0.0000
      8 H         -22.0225  -13.8203   -5.6881 H      407  DMS407      0.0000
      9 H         -21.7936  -13.9337   -3.8972 H      407  DMS407      0.0000
     10 H         -23.0572  -14.9433   -4.7106 H      407  DMS407      0.0000
@<TRIPOS>BOND
     1     1     2    2
     2     1     3    1
     3     1     4    1
     4     3     5    1
     5     3     6    1
     6     3     7    1
     7     4     8    1
     8     4     9    1
     9     4    10    1

