@<TRIPOS>MOLECULE
DMS_1_A_410
 10 9 0 0 0
SMALL
NO_CHARGES

@<TRIPOS>ATOM
      1 S           6.3350   21.5840   -1.5650 S.o    410  DMS410      0.0000
      2 O           7.0720   20.4100   -0.9840 O.2    410  DMS410      0.0000
      3 C1          5.7540   22.6580   -0.2220 C.3    410  DMS410      0.0000
      4 C2          7.5130   22.7050   -2.3700 C.3    410  DMS410      0.0000
      5 H           5.2683   23.5584   -0.6505 H      410  DMS410      0.0000
      6 H           6.6107   22.9631    0.4133 H      410  DMS410      0.0000
      7 H           5.0174   22.1045    0.3956 H      410  DMS410      0.0000
      8 H           6.9777   23.6038   -2.7386 H      410  DMS410      0.0000
      9 H           7.9854   22.1838   -3.2276 H      410  DMS410      0.0000
     10 H           8.2977   23.0087   -1.6472 H      410  DMS410      0.0000
@<TRIPOS>BOND
     1     1     2    2
     2     1     3    1
     3     1     4    1
     4     3     5    1
     5     3     6    1
     6     3     7    1
     7     4     8    1
     8     4     9    1
     9     4    10    1

