@<TRIPOS>MOLECULE
DMS_2_A_409
 10 9 0 0 0
SMALL
NO_CHARGES

@<TRIPOS>ATOM
      1 S         -21.2090   14.7330   -7.3680 S.o    409  DMS409      0.0000
      2 O         -20.7820   14.0560   -6.1040 O.2    409  DMS409      0.0000
      3 C1        -20.7410   13.7150   -8.7960 C.3    409  DMS409      0.0000
      4 C2        -23.0170   14.6760   -7.5090 C.3    409  DMS409      0.0000
      5 H         -21.1131   14.1889   -9.7272 H      409  DMS409      0.0000
      6 H         -21.1772   12.7001   -8.6938 H      409  DMS409      0.0000
      7 H         -19.6355   13.6372   -8.8421 H      409  DMS409      0.0000
      8 H         -23.3280   15.1238   -8.4749 H      409  DMS409      0.0000
      9 H         -23.4665   15.2548   -6.6764 H      409  DMS409      0.0000
     10 H         -23.3657   13.6242   -7.4559 H      409  DMS409      0.0000
@<TRIPOS>BOND
     1     1     2    2
     2     1     3    1
     3     1     4    1
     4     3     5    1
     5     3     6    1
     6     3     7    1
     7     4     8    1
     8     4     9    1
     9     4    10    1

