@<TRIPOS>MOLECULE
DMS_1_A_406
 10 9 0 0 0
SMALL
NO_CHARGES

@<TRIPOS>ATOM
      1 S           5.8550    0.4090   18.1160 S.o    406  DMS406      0.0000
      2 O           6.8810    1.0510   17.2540 O.2    406  DMS406      0.0000
      3 C1          6.6460   -0.4460   19.5090 C.3    406  DMS406      0.0000
      4 C2          4.9210    1.6880   19.0260 C.3    406  DMS406      0.0000
      5 H           5.8669   -0.8708   20.1743 H      406  DMS406      0.0000
      6 H           7.2753    0.2674   20.0796 H      406  DMS406      0.0000
      7 H           7.2819   -1.2673   19.1198 H      406  DMS406      0.0000
      8 H           4.1932    1.2009   19.7066 H      406  DMS406      0.0000
      9 H           4.3748    2.3254   18.3009 H      406  DMS406      0.0000
     10 H           5.6210    2.3159   19.6145 H      406  DMS406      0.0000
@<TRIPOS>BOND
     1     1     2    2
     2     1     3    1
     3     1     4    1
     4     3     5    1
     5     3     6    1
     6     3     7    1
     7     4     8    1
     8     4     9    1
     9     4    10    1

