@<TRIPOS>MOLECULE
DMS_2_A_404
 10 9 0 0 0
SMALL
NO_CHARGES

@<TRIPOS>ATOM
      1 S          -6.0880   -0.9950    6.3370 S.o    404  DMS404      0.0000
      2 O          -6.9460   -0.6060    7.4870 O.2    404  DMS404      0.0000
      3 C1         -5.7410   -2.7670    6.3610 C.3    404  DMS404      0.0000
      4 C2         -7.0760   -0.8860    4.8090 C.3    404  DMS404      0.0000
      5 H          -5.1608   -3.0446    5.4574 H      404  DMS404      0.0000
      6 H          -6.6924   -3.3370    6.3822 H      404  DMS404      0.0000
      7 H          -5.1470   -3.0113    7.2653 H      404  DMS404      0.0000
      8 H          -6.4635   -1.2212    3.9471 H      404  DMS404      0.0000
      9 H          -7.3868    0.1668    4.6496 H      404  DMS404      0.0000
     10 H          -7.9773   -1.5266    4.8980 H      404  DMS404      0.0000
@<TRIPOS>BOND
     1     1     2    2
     2     1     3    1
     3     1     4    1
     4     3     5    1
     5     3     6    1
     6     3     7    1
     7     4     8    1
     8     4     9    1
     9     4    10    1

