DMS_1_A_406
  -ISIS-            3D

 10  9  0  0  0  0  0  0  0  0  1 V2000
    5.8550    0.4090   18.1160 S   0  0  0  0  0
    6.8810    1.0510   17.2540 O   0  0  0  0  0
    6.6460   -0.4460   19.5090 C   0  0  0  0  0
    4.9210    1.6880   19.0260 C   0  0  0  0  0
    5.8669   -0.8708   20.1743 H   0  0  0  0  0
    7.2753    0.2674   20.0796 H   0  0  0  0  0
    7.2819   -1.2673   19.1198 H   0  0  0  0  0
    4.1932    1.2009   19.7066 H   0  0  0  0  0
    4.3748    2.3254   18.3009 H   0  0  0  0  0
    5.6210    2.3159   19.6145 H   0  0  0  0  0
  1  2  2  0  0  0
  1  3  1  0  0  0
  1  4  1  0  0  0
  3  5  1  0  0  0
  3  6  1  0  0  0
  3  7  1  0  0  0
  4  8  1  0  0  0
  4  9  1  0  0  0
  4 10  1  0  0  0
M  END
$$$$
