DMS_1_A_407
  -ISIS-            3D

 10  9  0  0  0  0  0  0  0  0  1 V2000
   20.8220  -15.8260    5.0500 S   0  0  0  0  0
   20.9160  -16.7960    3.9130 O   0  0  0  0  0
   21.4550  -16.6120    6.5610 C   0  0  0  0  0
   22.0440  -14.5040    4.8150 C   0  0  0  0  0
   21.4482  -15.8769    7.3915 H   0  0  0  0  0
   22.4901  -16.9729    6.3912 H   0  0  0  0  0
   20.8045  -17.4703    6.8265 H   0  0  0  0  0
   22.0225  -13.8203    5.6881 H   0  0  0  0  0
   21.7936  -13.9337    3.8972 H   0  0  0  0  0
   23.0572  -14.9433    4.7106 H   0  0  0  0  0
  1  2  2  0  0  0
  1  3  1  0  0  0
  1  4  1  0  0  0
  3  5  1  0  0  0
  3  6  1  0  0  0
  3  7  1  0  0  0
  4  8  1  0  0  0
  4  9  1  0  0  0
  4 10  1  0  0  0
M  END
$$$$
