@<TRIPOS>MOLECULE
9IN_1_A_1001
 96 97 0 0 0
SMALL
NO_CHARGES

@<TRIPOS>ATOM
      1 C4         99.7360    8.7990   -3.6060 C.ar  1001  9IN1001      0.0000
      2 C2        101.4930    7.4150   -3.5300 C.ar  1001  9IN1001      0.0000
      3 C3        101.5910    8.1650   -4.6800 C.ar  1001  9IN1001      0.0000
      4 O1        100.5560    9.0380   -4.8030 O.3   1001  9IN1001      0.0000
      5 C1        100.2560    7.9030   -2.8970 C.ar  1001  9IN1001      0.0000
      6 C5         99.3780    7.6770   -1.6140 C.2   1001  9IN1001      0.0000
      7 O2         98.1250    7.5380   -1.5540 O.2   1001  9IN1001      0.0000
      8 N2        100.1610    8.6330   -0.9930 N.am  1001  9IN1001      0.0000
      9 C6         99.8820    8.9270    0.3470 C.3   1001  9IN1001      0.0000
     10 C8        101.2210    9.3320    0.9680 C.3   1001  9IN1001      0.0000
     11 C9        101.4590    9.7730    2.4240 C.3   1001  9IN1001      0.0000
     12 C10       102.2430    8.2020    0.7830 C.3   1001  9IN1001      0.0000
     13 C7         98.8760   10.0150    0.5250 C.2   1001  9IN1001      0.0000
     14 O3         98.8110   10.9710   -0.2800 O.2   1001  9IN1001      0.0000
     15 N3         98.2200    9.8090    1.4890 N.am  1001  9IN1001      0.0000
     16 C11        97.2230   10.7900    1.7610 C.3   1001  9IN1001      0.0000
     17 C12        95.9320   10.0130    1.9830 C.3   1001  9IN1001      0.0000
     18 C13        95.0210   11.2070    2.2940 C.3   1001  9IN1001      0.0000
     19 C14        95.5620    9.5320    0.5590 C.3   1001  9IN1001      0.0000
     20 C15        97.4020   11.1530    3.2600 C.2   1001  9IN1001      0.0000
     21 O4         97.0940   10.3420    4.1370 O.2   1001  9IN1001      0.0000
     22 N4         97.9290   12.4490    3.4870 N.am  1001  9IN1001      0.0000
     23 C16        98.1610   12.9900    4.8980 C.3   1001  9IN1001      0.0000
     24 C17        98.7870   14.3900    4.9060 C.3   1001  9IN1001      0.0000
     25 C18       100.2130   14.4490    4.2720 C.3   1001  9IN1001      0.0000
     26 C19       101.2270   13.5170    5.0090 C.3   1001  9IN1001      0.0000
     27 C20       100.7620   15.8720    4.3290 C.3   1001  9IN1001      0.0000
     28 C21        96.7720   12.9870    5.5440 C.2   1001  9IN1001      0.0000
     29 O5         95.7870   13.5340    4.9010 O.2   1001  9IN1001      0.0000
     30 N5         96.5820   12.4020    6.7740 N.am  1001  9IN1001      0.0000
     31 C22        95.3610   12.4150    7.2860 C.3   1001  9IN1001      0.0000
     32 C23        95.2110   13.2290    8.5640 C.3   1001  9IN1001      0.0000
     33 C28        94.8900   11.0540    7.5940 C.3   1001  9IN1001      0.0000
     34 C29        94.4120   10.1610    6.5240 C.3   1001  9IN1001      0.0000
     35 C30        93.0830   10.5170    5.8490 C.3   1001  9IN1001      0.0000
     36 C31        92.5770    9.1810    5.3520 C.3   1001  9IN1001      0.0000
     37 N6         93.1840    8.2500    6.2880 N.am  1001  9IN1001      0.0000
     38 C32        94.2050    8.7400    6.9650 C.2   1001  9IN1001      0.0000
     39 O8         94.8250    8.1090    7.7800 O.2   1001  9IN1001      0.0000
     40 C24        94.8140   14.6140    8.1190 C.3   1001  9IN1001      0.0000
     41 C25        93.9490   15.5020    8.9890 C.2   1001  9IN1001      0.0000
     42 O6         93.5030   15.1650   10.1240 O.2   1001  9IN1001      0.0000
     43 O7         93.6970   16.7250    8.3470 O.3   1001  9IN1001      0.0000
     44 C26        92.8790   17.6720    9.0180 C.3   1001  9IN1001      0.0000
     45 C27        92.7840   18.8480    8.0490 C.3   1001  9IN1001      0.0000
     46 H          98.8496    9.4347   -3.5587 H     1001  9IN1001      0.0000
     47 H         102.1679    6.6367   -3.1579 H     1001  9IN1001      0.0000
     48 H         102.3126    8.2032   -5.4984 H     1001  9IN1001      0.0000
     49 H         100.9557    9.1145   -1.4409 H     1001  9IN1001      0.0000
     50 H          99.5433    7.9942    0.8612 H     1001  9IN1001      0.0000
     51 H         101.5902   10.1981    0.3588 H     1001  9IN1001      0.0000
     52 H         102.5112   10.0810    2.6161 H     1001  9IN1001      0.0000
     53 H         101.2048    8.9639    3.1447 H     1001  9IN1001      0.0000
     54 H         100.8195   10.6463    2.6833 H     1001  9IN1001      0.0000
     55 H         103.2593    8.4928    1.1318 H     1001  9IN1001      0.0000
     56 H         102.3715    7.8890   -0.2755 H     1001  9IN1001      0.0000
     57 H         101.9542    7.2904    1.3532 H     1001  9IN1001      0.0000
     58 H          98.3198    9.0085    2.1292 H     1001  9IN1001      0.0000
     59 H          97.1565   11.6704    1.0866 H     1001  9IN1001      0.0000
     60 H          95.8952    9.1775    2.7149 H     1001  9IN1001      0.0000
     61 H          93.9557   10.8887    2.2312 H     1001  9IN1001      0.0000
     62 H          95.1145   12.0601    1.5854 H     1001  9IN1001      0.0000
     63 H          95.1228   11.6136    3.3211 H     1001  9IN1001      0.0000
     64 H          94.5266    9.1239    0.5350 H     1001  9IN1001      0.0000
     65 H          96.2270    8.7094    0.2145 H     1001  9IN1001      0.0000
     66 H          95.6082   10.3403   -0.2048 H     1001  9IN1001      0.0000
     67 H          98.1476   13.0456    2.6786 H     1001  9IN1001      0.0000
     68 H          98.8140   12.2870    5.4640 H     1001  9IN1001      0.0000
     69 H          98.8402   14.7541    5.9582 H     1001  9IN1001      0.0000
     70 H          98.1159   15.0938    4.3614 H     1001  9IN1001      0.0000
     71 H         100.1527   14.1345    3.2026 H     1001  9IN1001      0.0000
     72 H         102.2562   13.6316    4.6012 H     1001  9IN1001      0.0000
     73 H         100.9612   12.4433    4.8951 H     1001  9IN1001      0.0000
     74 H         101.2745   13.7374    6.0988 H     1001  9IN1001      0.0000
     75 H         101.7633   15.9482    3.8489 H     1001  9IN1001      0.0000
     76 H         100.8685   16.2365    5.3752 H     1001  9IN1001      0.0000
     77 H         100.0959   16.5883    3.7977 H     1001  9IN1001      0.0000
     78 H          97.3686   11.9605    7.2692 H     1001  9IN1001      0.0000
     79 H          94.6047   12.7815    6.5549 H     1001  9IN1001      0.0000
     80 H          96.1438   13.2380    9.1717 H     1001  9IN1001      0.0000
     81 H          94.4026   12.8371    9.2207 H     1001  9IN1001      0.0000
     82 H          94.0443   11.1080    8.3192 H     1001  9IN1001      0.0000
     83 H          95.6991   10.5319    8.1591 H     1001  9IN1001      0.0000
     84 H          95.1959   10.1229    5.7300 H     1001  9IN1001      0.0000
     85 H          93.1997   11.2602    5.0295 H     1001  9IN1001      0.0000
     86 H          92.3733   10.9390    6.5978 H     1001  9IN1001      0.0000
     87 H          92.9216    8.9874    4.3104 H     1001  9IN1001      0.0000
     88 H          91.4649    9.1370    5.3630 H     1001  9IN1001      0.0000
     89 H          92.8640    7.2825    6.4250 H     1001  9IN1001      0.0000
     90 H          94.2593   14.5644    7.1559 H     1001  9IN1001      0.0000
     91 H          95.7445   15.1774    7.8767 H     1001  9IN1001      0.0000
     92 H          93.3348   17.9980    9.9764 H     1001  9IN1001      0.0000
     93 H          91.8680   17.2636    9.2273 H     1001  9IN1001      0.0000
     94 H          92.1591   19.6662    8.4690 H     1001  9IN1001      0.0000
     95 H          92.3252   18.5490    7.0811 H     1001  9IN1001      0.0000
     96 H          93.7839   19.2806    7.8261 H     1001  9IN1001      0.0000
@<TRIPOS>BOND
     1     1     4   ar
     2     1     5   ar
     3     1    46    1
     4     2     3   ar
     5     2     5   ar
     6     2    47    1
     7     3     4   ar
     8     3    48    1
     9     5     6    1
    10     6     7    2
    11     6     8    1
    12     8     9    1
    13     8    49    1
    14     9    10    1
    15     9    13    1
    16     9    50    1
    17    10    11    1
    18    10    12    1
    19    10    51    1
    20    11    52    1
    21    11    53    1
    22    11    54    1
    23    12    55    1
    24    12    56    1
    25    12    57    1
    26    13    14    2
    27    13    15    1
    28    15    16    1
    29    15    58    1
    30    16    17    1
    31    16    20    1
    32    16    59    1
    33    17    18    1
    34    17    19    1
    35    17    60    1
    36    18    61    1
    37    18    62    1
    38    18    63    1
    39    19    64    1
    40    19    65    1
    41    19    66    1
    42    20    21    2
    43    20    22    1
    44    22    23    1
    45    22    67    1
    46    23    24    1
    47    23    28    1
    48    23    68    1
    49    24    25    1
    50    24    69    1
    51    24    70    1
    52    25    26    1
    53    25    27    1
    54    25    71    1
    55    26    72    1
    56    26    73    1
    57    26    74    1
    58    27    75    1
    59    27    76    1
    60    27    77    1
    61    28    29    2
    62    28    30    1
    63    30    31    1
    64    30    78    1
    65    31    32    1
    66    31    33    1
    67    31    79    1
    68    32    40    1
    69    32    80    1
    70    32    81    1
    71    33    34    1
    72    33    82    1
    73    33    83    1
    74    34    35    1
    75    34    38    1
    76    34    84    1
    77    35    36    1
    78    35    85    1
    79    35    86    1
    80    36    37    1
    81    36    87    1
    82    36    88    1
    83    37    38    1
    84    37    89    1
    85    38    39    2
    86    40    41    1
    87    40    90    1
    88    40    91    1
    89    41    42    2
    90    41    43    1
    91    43    44    1
    92    44    45    1
    93    44    92    1
    94    44    93    1
    95    45    94    1
    96    45    95    1
    97    45    96    1

