@<TRIPOS>MOLECULE
DMS_2_A_1003
 10 9 0 0 0
SMALL
NO_CHARGES

@<TRIPOS>ATOM
      1 S          -6.2230   -1.2380    6.3240 S.o   1003  DMS1003      0.0000
      2 O          -6.9800   -0.6980    7.4540 O.2   1003  DMS1003      0.0000
      3 C1         -7.4090   -1.2440    5.0130 C.3   1003  DMS1003      0.0000
      4 C2         -6.0970   -2.9650    6.6010 C.3   1003  DMS1003      0.0000
      5 H          -6.9928   -1.7752    4.1327 H     1003  DMS1003      0.0000
      6 H          -7.6424   -0.1994    4.7216 H     1003  DMS1003      0.0000
      7 H          -8.3439   -1.7466    5.3364 H     1003  DMS1003      0.0000
      8 H          -5.6897   -3.4627    5.6974 H     1003  DMS1003      0.0000
      9 H          -7.0918   -3.3947    6.8395 H     1003  DMS1003      0.0000
     10 H          -5.4105   -3.1532    7.4516 H     1003  DMS1003      0.0000
@<TRIPOS>BOND
     1     1     2    2
     2     1     3    1
     3     1     4    1
     4     3     5    1
     5     3     6    1
     6     3     7    1
     7     4     8    1
     8     4     9    1
     9     4    10    1

