@<TRIPOS>MOLECULE
DMS_2_A_1005
 10 9 0 0 0
SMALL
NO_CHARGES

@<TRIPOS>ATOM
      1 S         -21.0730   14.5190   -7.8700 S.o   1005  DMS1005      0.0000
      2 O         -22.4840   14.9290   -7.9400 O.2   1005  DMS1005      0.0000
      3 C1        -20.8690   13.3850   -9.2110 C.3   1005  DMS1005      0.0000
      4 C2        -21.0220   13.3470   -6.5500 C.3   1005  DMS1005      0.0000
      5 H         -19.8801   12.8882   -9.1368 H     1005  DMS1005      0.0000
      6 H         -20.9186   13.9383  -10.1712 H     1005  DMS1005      0.0000
      7 H         -21.6691   12.6164   -9.1966 H     1005  DMS1005      0.0000
      8 H         -20.0310   12.8494   -6.5262 H     1005  DMS1005      0.0000
      9 H         -21.8150   12.5814   -6.6772 H     1005  DMS1005      0.0000
     10 H         -21.1800   13.8719   -5.5856 H     1005  DMS1005      0.0000
@<TRIPOS>BOND
     1     1     2    2
     2     1     3    1
     3     1     4    1
     4     3     5    1
     5     3     6    1
     6     3     7    1
     7     4     8    1
     8     4     9    1
     9     4    10    1

