@<TRIPOS>MOLECULE
DMS_1_A_1002
 10 9 0 0 0
SMALL
NO_CHARGES

@<TRIPOS>ATOM
      1 S           7.1430  -28.1770   21.6170 S.o   1002  DMS1002      0.0000
      2 O           7.7840  -27.2120   22.5020 O.2   1002  DMS1002      0.0000
      3 C1          5.8980  -28.9290   22.6260 C.3   1002  DMS1002      0.0000
      4 C2          6.1070  -27.2590   20.5200 C.3   1002  DMS1002      0.0000
      5 H           5.2598  -29.5896   22.0043 H     1002  DMS1002      0.0000
      6 H           5.2664  -28.1528   23.1051 H     1002  DMS1002      0.0000
      7 H           6.3824  -29.5397   23.4153 H     1002  DMS1002      0.0000
      8 H           5.4748  -27.9540   19.9305 H     1002  DMS1002      0.0000
      9 H           6.7387  -26.6711   19.8231 H     1002  DMS1002      0.0000
     10 H           5.4570  -26.5651   21.0915 H     1002  DMS1002      0.0000
@<TRIPOS>BOND
     1     1     2    2
     2     1     3    1
     3     1     4    1
     4     3     5    1
     5     3     6    1
     6     3     7    1
     7     4     8    1
     8     4     9    1
     9     4    10    1

