@<TRIPOS>MOLECULE
DMS_2_A_1004
 10 9 0 0 0
SMALL
NO_CHARGES

@<TRIPOS>ATOM
      1 S          -2.4310  -19.2400   -8.3130 S.o   1004  DMS1004      0.0000
      2 O          -3.6330  -18.7900   -9.0190 O.2   1004  DMS1004      0.0000
      3 C1         -1.1290  -18.1940   -8.8950 C.3   1004  DMS1004      0.0000
      4 C2         -1.9480  -20.7260   -9.1610 C.3   1004  DMS1004      0.0000
      5 H          -0.1510  -18.5766   -8.5382 H     1004  DMS1004      0.0000
      6 H          -1.2767  -17.1684   -8.4992 H     1004  DMS1004      0.0000
      7 H          -1.1272  -18.1556  -10.0039 H     1004  DMS1004      0.0000
      8 H          -0.9519  -21.0565   -8.8020 H     1004  DMS1004      0.0000
      9 H          -1.9063  -20.5521  -10.2561 H     1004  DMS1004      0.0000
     10 H          -2.6872  -21.5258   -8.9503 H     1004  DMS1004      0.0000
@<TRIPOS>BOND
     1     1     2    2
     2     1     3    1
     3     1     4    1
     4     3     5    1
     5     3     6    1
     6     3     7    1
     7     4     8    1
     8     4     9    1
     9     4    10    1

