@<TRIPOS>MOLECULE
BLA_1_A_1301
 73 76 0 0 0
SMALL
NO_CHARGES

@<TRIPOS>ATOM
      1 CHA        18.7470   13.9080  -18.0330 C.2   1301  BLA1301      0.0000
      2 NA         20.4320   15.3880  -17.0520 N.ar  1301  BLA1301      0.0000
      3 C1A        19.1230   14.9970  -17.2170 C.ar  1301  BLA1301      0.0000
      4 C2A        18.3130   15.8990  -16.4650 C.ar  1301  BLA1301      0.0000
      5 C3A        19.1720   16.8290  -15.8590 C.ar  1301  BLA1301      0.0000
      6 C4A        20.4960   16.5040  -16.2470 C.ar  1301  BLA1301      0.0000
      7 CMA        18.7610   17.9450  -14.9430 C.3   1301  BLA1301      0.0000
      8 CAA        16.8160   15.9030  -16.3240 C.3   1301  BLA1301      0.0000
      9 CBA        16.2900   14.7160  -15.5430 C.3   1301  BLA1301      0.0000
     10 CGA        16.8470   14.6190  -14.1520 C.2   1301  BLA1301      0.0000
     11 O1A        16.8130   15.5450  -13.3560 O.co2 1301  BLA1301     -0.5000
     12 O2A        17.3700   13.4380  -13.8820 O.co2 1301  BLA1301     -0.5000
     13 CHB        21.6880   17.1960  -15.9750 C.2   1301  BLA1301      0.0000
     14 NB         23.2630   15.4810  -16.6930 N.ar  1301  BLA1301      0.0000
     15 C1B        22.9440   16.7600  -16.3000 C.ar  1301  BLA1301      0.0000
     16 C2B        24.1740   17.5210  -16.2900 C.ar  1301  BLA1301      0.0000
     17 C3B        25.1880   16.6990  -16.6700 C.ar  1301  BLA1301      0.0000
     18 C4B        24.6090   15.3680  -16.9220 C.ar  1301  BLA1301      0.0000
     19 CMB        24.2560   18.9770  -15.9470 C.3   1301  BLA1301      0.0000
     20 OB         25.1760   14.3360  -17.2510 O.2   1301  BLA1301      0.0000
     21 CAB        26.5970   17.0300  -16.8690 C.2   1301  BLA1301      0.0000
     22 CBB        27.5310   16.2400  -17.3640 C.2   1301  BLA1301      0.0000
     23 NC         22.9080   15.4960  -20.1940 N.ar  1301  BLA1301      0.0000
     24 C1C        23.9210   16.4270  -20.1460 C.ar  1301  BLA1301      0.0000
     25 C2C        25.1090   15.7920  -20.6730 C.ar  1301  BLA1301      0.0000
     26 C3C        24.8020   14.4900  -20.9980 C.ar  1301  BLA1301      0.0000
     27 C4C        23.3660   14.3030  -20.7000 C.ar  1301  BLA1301      0.0000
     28 CMC        26.3720   16.5720  -20.8890 C.3   1301  BLA1301      0.0000
     29 OC         23.8140   17.5600  -19.6950 O.2   1301  BLA1301      0.0000
     30 CAC        25.6460   13.4180  -21.5210 C.2   1301  BLA1301      0.0000
     31 CBC        26.7660   13.5230  -22.1470 C.2   1301  BLA1301      0.0000
     32 CHD        22.5800   13.1760  -20.8800 C.2   1301  BLA1301      0.0000
     33 ND         20.8350   13.7940  -19.2890 N.ar  1301  BLA1301      0.0000
     34 C1D        21.3080   13.0080  -20.2860 C.ar  1301  BLA1301      0.0000
     35 C2D        20.3540   11.9690  -20.6260 C.ar  1301  BLA1301      0.0000
     36 C3D        19.2960   12.1230  -19.7580 C.ar  1301  BLA1301      0.0000
     37 C4D        19.5910   13.2990  -18.9540 C.ar  1301  BLA1301      0.0000
     38 CMD        20.4850   11.0040  -21.7640 C.3   1301  BLA1301      0.0000
     39 CAD        18.1660   11.1520  -19.5420 C.3   1301  BLA1301      0.0000
     40 CBD        18.5990   10.0270  -18.6140 C.3   1301  BLA1301      0.0000
     41 CGD        17.5290    9.5570  -17.6710 C.2   1301  BLA1301      0.0000
     42 O1D        16.6340   10.2790  -17.2560 O.co2 1301  BLA1301     -0.5000
     43 O2D        17.6770    8.2930  -17.3200 O.co2 1301  BLA1301     -0.5000
     44 H          17.7085   13.5514  -17.9547 H     1301  BLA1301      0.0000
     45 H          21.4882   14.6818  -17.3540 H     1301  BLA1301      0.0000
     46 H          19.6040   18.2856  -14.3040 H     1301  BLA1301      0.0000
     47 H          17.9441   17.6434  -14.2547 H     1301  BLA1301      0.0000
     48 H          18.4062   18.8237  -15.5255 H     1301  BLA1301      0.0000
     49 H          16.3690   15.8999  -17.3449 H     1301  BLA1301      0.0000
     50 H          16.4717   16.8495  -15.8520 H     1301  BLA1301      0.0000
     51 H          16.4935   13.7747  -16.1009 H     1301  BLA1301      0.0000
     52 H          15.1797   14.7893  -15.4734 H     1301  BLA1301      0.0000
     53 H          21.5876   18.1912  -15.5123 H     1301  BLA1301      0.0000
     54 H          25.2975   19.3626  -15.9779 H     1301  BLA1301      0.0000
     55 H          23.8677   19.1680  -14.9224 H     1301  BLA1301      0.0000
     56 H          23.6560   19.5873  -16.6577 H     1301  BLA1301      0.0000
     57 H          27.2754   15.9531  -20.7015 H     1301  BLA1301      0.0000
     58 H          26.4365   17.4416  -20.1991 H     1301  BLA1301      0.0000
     59 H          26.4268   16.9650  -21.9281 H     1301  BLA1301      0.0000
     60 H          25.2421   12.3936  -21.4366 H     1301  BLA1301      0.0000
     61 H          22.9876   12.3488  -21.4826 H     1301  BLA1301      0.0000
     62 H          21.4133   14.9145  -18.9579 H     1301  BLA1301      0.0000
     63 H          19.5049   10.5731  -22.0609 H     1301  BLA1301      0.0000
     64 H          21.1550   10.1591  -21.4909 H     1301  BLA1301      0.0000
     65 H          20.9094   11.4972  -22.6659 H     1301  BLA1301      0.0000
     66 H          17.8130   10.7388  -20.5127 H     1301  BLA1301      0.0000
     67 H          17.2982   11.7051  -19.1228 H     1301  BLA1301      0.0000
     68 H          19.4495   10.3779  -17.9835 H     1301  BLA1301      0.0000
     69 H          18.9982    9.1791  -19.2169 H     1301  BLA1301      0.0000
     70 H          26.9500   17.3689  -15.8729 H     1301  BLA1301      0.0000
     71 H          26.6134   17.9913  -17.4209 H     1301  BLA1301      0.0000
     72 H          27.2901   12.6281  -22.5214 H     1301  BLA1301      0.0000
     73 H          27.2409   14.4943  -22.3448 H     1301  BLA1301      0.0000
@<TRIPOS>BOND
     1     1     3    2
     2     1    37    1
     3     1    44    1
     4     2     3   ar
     5     2     6   ar
     6     2    45    1
     7     3     4   ar
     8     4     5   ar
     9     4     8    1
    10     5     6   ar
    11     5     7    1
    12     6    13    2
    13     7    46    1
    14     7    47    1
    15     7    48    1
    16     8     9    1
    17     8    49    1
    18     8    50    1
    19     9    10    1
    20     9    51    1
    21     9    52    1
    22    10    11   ar
    23    10    12   ar
    24    13    15    1
    25    13    53    1
    26    14    15   ar
    27    14    18   ar
    28    15    16   ar
    29    16    17   ar
    30    16    19    1
    31    17    18   ar
    32    17    21    1
    33    18    20    2
    34    19    54    1
    35    19    55    1
    36    19    56    1
    37    21    22    1
    38    21    70    1
    39    21    71    1
    40    23    24   ar
    41    23    27   ar
    42    24    25   ar
    43    24    29    2
    44    25    26   ar
    45    25    28    1
    46    26    27   ar
    47    26    30    1
    48    27    32    2
    49    28    57    1
    50    28    58    1
    51    28    59    1
    52    30    31    2
    53    30    60    1
    54    31    72    1
    55    31    73    1
    56    32    34    1
    57    32    61    1
    58    33    34   ar
    59    33    37   ar
    60    33    62    1
    61    34    35   ar
    62    35    36   ar
    63    35    38    1
    64    36    37   ar
    65    36    39    1
    66    38    63    1
    67    38    64    1
    68    38    65    1
    69    39    40    1
    70    39    66    1
    71    39    67    1
    72    40    41    1
    73    40    68    1
    74    40    69    1
    75    41    42   ar
    76    41    43   ar

