@<TRIPOS>MOLECULE
PGE_1_A_1314
 24 23 0 0 0
SMALL
NO_CHARGES

@<TRIPOS>ATOM
      1 C1         15.9510   17.3790  -23.3550 C.3   1314  PGE1314      0.0000
      2 O1         14.7660   18.0010  -23.8320 O.3   1314  PGE1314      0.0000
      3 C2         17.0150   17.2990  -24.4180 C.3   1314  PGE1314      0.0000
      4 O2         18.2180   16.7680  -23.8570 O.3   1314  PGE1314      0.0000
      5 C3         18.8040   15.7470  -24.6620 C.3   1314  PGE1314      0.0000
      6 C4         20.2910   15.9140  -24.7470 C.3   1314  PGE1314      0.0000
      7 O4         22.1300   13.2560  -24.2380 O.3   1314  PGE1314      0.0000
      8 C6         22.8870   13.8140  -25.3030 C.3   1314  PGE1314      0.0000
      9 C5         22.2550   15.0790  -25.7850 C.3   1314  PGE1314      0.0000
     10 O3         20.8430   14.9680  -25.6640 O.3   1314  PGE1314      0.0000
     11 H          15.7111   16.3676  -22.9632 H     1314  PGE1314      0.0000
     12 H          16.3272   17.9701  -22.4939 H     1314  PGE1314      0.0000
     13 H          14.2757   17.3690  -24.3412 H     1314  PGE1314      0.0000
     14 H          17.2297   18.3046  -24.8355 H     1314  PGE1314      0.0000
     15 H          16.6374   16.6731  -25.2525 H     1314  PGE1314      0.0000
     16 H          18.3975   15.7717  -25.6945 H     1314  PGE1314      0.0000
     17 H          18.5417   14.7560  -24.2367 H     1314  PGE1314      0.0000
     18 H          20.7435   15.7785  -23.7420 H     1314  PGE1314      0.0000
     19 H          20.5300   16.9433  -25.0900 H     1314  PGE1314      0.0000
     20 H          22.5132   12.4220  -23.9992 H     1314  PGE1314      0.0000
     21 H          22.9276   13.0767  -26.1336 H     1314  PGE1314      0.0000
     22 H          23.9324   13.9934  -24.9749 H     1314  PGE1314      0.0000
     23 H          22.5180   15.2716  -26.8455 H     1314  PGE1314      0.0000
     24 H          22.6377   15.9428  -25.2026 H     1314  PGE1314      0.0000
@<TRIPOS>BOND
     1     1     2    1
     2     1     3    1
     3     1    11    1
     4     1    12    1
     5     2    13    1
     6     3     4    1
     7     3    14    1
     8     3    15    1
     9     4     5    1
    10     5     6    1
    11     5    16    1
    12     5    17    1
    13     6    10    1
    14     6    18    1
    15     6    19    1
    16     7     8    1
    17     7    20    1
    18     8     9    1
    19     8    21    1
    20     8    22    1
    21     9    10    1
    22     9    23    1
    23     9    24    1

