@<TRIPOS>MOLECULE
PGE_1_A_1315
 24 23 0 0 0
SMALL
NO_CHARGES

@<TRIPOS>ATOM
      1 C1         29.1840   31.1700  -27.6110 C.3   1315  PGE1315      0.0000
      2 O1         28.7200   30.8370  -26.3090 O.3   1315  PGE1315      0.0000
      3 C2         30.6270   30.8030  -27.8010 C.3   1315  PGE1315      0.0000
      4 O2         31.4360   31.6300  -26.9740 O.3   1315  PGE1315      0.0000
      5 C3         32.5840   30.9620  -26.4700 C.3   1315  PGE1315      0.0000
      6 C4         33.7470   31.8900  -26.4960 C.3   1315  PGE1315      0.0000
      7 O4         35.7530   34.8650  -29.4700 O.3   1315  PGE1315      0.0000
      8 C6         34.9640   34.4530  -28.3660 C.3   1315  PGE1315      0.0000
      9 C5         35.0970   32.9850  -28.1140 C.3   1315  PGE1315      0.0000
     10 O3         33.8180   32.4610  -27.7880 O.3   1315  PGE1315      0.0000
     11 H          29.0255   32.2535  -27.7961 H     1315  PGE1315      0.0000
     12 H          28.5572   30.6292  -28.3506 H     1315  PGE1315      0.0000
     13 H          29.2961   31.2742  -25.6936 H     1315  PGE1315      0.0000
     14 H          30.9346   30.9373  -28.8590 H     1315  PGE1315      0.0000
     15 H          30.7583   29.7291  -27.5508 H     1315  PGE1315      0.0000
     16 H          32.8276   30.0735  -27.0906 H     1315  PGE1315      0.0000
     17 H          32.3800   30.5979  -25.4419 H     1315  PGE1315      0.0000
     18 H          34.6718   31.3243  -26.2560 H     1315  PGE1315      0.0000
     19 H          33.6353   32.6960  -25.7411 H     1315  PGE1315      0.0000
     20 H          35.5907   35.7857  -29.6280 H     1315  PGE1315      0.0000
     21 H          33.9043   34.7096  -28.5822 H     1315  PGE1315      0.0000
     22 H          35.2518   35.0297  -27.4616 H     1315  PGE1315      0.0000
     23 H          35.8537   32.7850  -27.3285 H     1315  PGE1315      0.0000
     24 H          35.4486   32.4675  -29.0309 H     1315  PGE1315      0.0000
@<TRIPOS>BOND
     1     1     2    1
     2     1     3    1
     3     1    11    1
     4     1    12    1
     5     2    13    1
     6     3     4    1
     7     3    14    1
     8     3    15    1
     9     4     5    1
    10     5     6    1
    11     5    16    1
    12     5    17    1
    13     6    10    1
    14     6    18    1
    15     6    19    1
    16     7     8    1
    17     7    20    1
    18     8     9    1
    19     8    21    1
    20     8    22    1
    21     9    10    1
    22     9    23    1
    23     9    24    1

