@<TRIPOS>MOLECULE
DMS_1_A_202
 10 9 0 0 0
SMALL
NO_CHARGES

@<TRIPOS>ATOM
      1 S          -0.6820    9.4340   -7.0800 S.o    202  DMS202      0.0000
      2 O          -0.4370    9.5510   -8.5270 O.2    202  DMS202      0.0000
      3 C1          0.1570    7.9580   -6.6240 C.3    202  DMS202      0.0000
      4 C2         -2.3240    8.8480   -7.0250 C.3    202  DMS202      0.0000
      5 H          -0.1213    7.6716   -5.5892 H      202  DMS202      0.0000
      6 H           1.2524    8.1300   -6.6630 H      202  DMS202      0.0000
      7 H          -0.1020    7.1305   -7.3155 H      202  DMS202      0.0000
      8 H          -2.5826    8.5488   -5.9888 H      202  DMS202      0.0000
      9 H          -2.4544    7.9773   -7.6990 H      202  DMS202      0.0000
     10 H          -3.0159    9.6549   -7.3430 H      202  DMS202      0.0000
@<TRIPOS>BOND
     1     1     2    2
     2     1     3    1
     3     1     4    1
     4     3     5    1
     5     3     6    1
     6     3     7    1
     7     4     8    1
     8     4     9    1
     9     4    10    1

