@<TRIPOS>MOLECULE
DMS_1_A_401
 10 9 0 0 0
SMALL
NO_CHARGES

@<TRIPOS>ATOM
      1 S           7.0760  -28.0680   21.5620 S.o    401  DMS401      0.0000
      2 O           6.3000  -27.2410   20.5590 O.2    401  DMS401      0.0000
      3 C1          7.9010  -26.9460   22.5890 C.3    401  DMS401      0.0000
      4 C2          5.8690  -28.6400   22.7210 C.3    401  DMS401      0.0000
      5 H           8.3668  -27.4819   23.4410 H      401  DMS401      0.0000
      6 H           7.1981  -26.1808   22.9782 H      401  DMS401      0.0000
      7 H           8.7001  -26.4360   22.0131 H      401  DMS401      0.0000
      8 H           6.3718  -29.1415   23.5730 H      401  DMS401      0.0000
      9 H           5.1986  -29.3700   22.2229 H      401  DMS401      0.0000
     10 H           5.2609  -27.7924   23.0988 H      401  DMS401      0.0000
@<TRIPOS>BOND
     1     1     2    2
     2     1     3    1
     3     1     4    1
     4     3     5    1
     5     3     6    1
     6     3     7    1
     7     4     8    1
     8     4     9    1
     9     4    10    1

