DMS_1_A_402
  -ISIS-            3D

 10  9  0  0  0  0  0  0  0  0  1 V2000
    7.4810  -21.4710   29.4410 S   0  0  0  0  0
    8.4890  -20.7140   28.6400 O   0  0  0  0  0
    5.9280  -20.6390   29.2190 C   0  0  0  0  0
    7.0970  -22.9210   28.5030 C   0  0  0  0  0
    5.1117  -21.2365   29.6740 H   0  0  0  0  0
    5.7195  -20.4886   28.1398 H   0  0  0  0  0
    5.9681  -19.6498   29.7193 H   0  0  0  0  0
    6.2505  -23.4618   28.9735 H   0  0  0  0  0
    7.9813  -23.5904   28.4845 H   0  0  0  0  0
    6.8290  -22.6501   27.4611 H   0  0  0  0  0
  1  2  2  0  0  0
  1  3  1  0  0  0
  1  4  1  0  0  0
  3  5  1  0  0  0
  3  6  1  0  0  0
  3  7  1  0  0  0
  4  8  1  0  0  0
  4  9  1  0  0  0
  4 10  1  0  0  0
M  END
$$$$
