@<TRIPOS>MOLECULE
K36_2_A_401
 60 61 0 0 0
SMALL
NO_CHARGES

@<TRIPOS>ATOM
      1 C7        -26.1630    6.9310  -44.5720 C.3    401  K36401      0.0000
      2 O8        -26.2670    7.1420  -43.0120 O.3    401  K36401      0.0000
      3 C9        -26.4530    8.5020  -42.6220 C.2    401  K36401      0.0000
      4 O10       -25.6660    9.0260  -41.8830 O.2    401  K36401      0.0000
      5 C1        -25.4720    5.6740  -45.1870 C.ar   401  K36401      0.0000
      6 C2        -24.1280    5.6670  -45.6010 C.ar   401  K36401      0.0000
      7 C3        -23.5300    4.5080  -46.1490 C.ar   401  K36401      0.0000
      8 C4        -24.2560    3.3070  -46.3190 C.ar   401  K36401      0.0000
      9 C5        -25.5970    3.2930  -45.9450 C.ar   401  K36401      0.0000
     10 C6        -26.1920    4.4520  -45.3860 C.ar   401  K36401      0.0000
     11 N11       -27.4720    9.2640  -43.1570 N.am   401  K36401      0.0000
     12 C12       -27.3800   10.7560  -43.1100 C.3    401  K36401      0.0000
     13 C17       -27.6560   11.3280  -41.6090 C.2    401  K36401      0.0000
     14 O18       -28.3990   10.6990  -40.9150 O.2    401  K36401      0.0000
     15 C13       -28.4870   11.3100  -44.0200 C.3    401  K36401      0.0000
     16 C14       -28.2710   11.2380  -45.5190 C.3    401  K36401      0.0000
     17 C15       -29.3940   12.0310  -46.2890 C.3    401  K36401      0.0000
     18 C16       -26.8930   11.7600  -45.9110 C.3    401  K36401      0.0000
     19 N19       -27.1400   12.5560  -41.0830 N.am   401  K36401      0.0000
     20 C20       -27.4340   12.9970  -39.7920 C.3    401  K36401      0.0000
     21 C21       -27.5720   14.4860  -39.7410 C.3    401  K36401      0.0000
     22 O22       -28.0330   14.9710  -38.4870 O.3    401  K36401      0.0000
     23 C24       -26.2890   12.5720  -38.6690 C.3    401  K36401      0.0000
     24 C25       -25.6990   11.1310  -38.8160 C.3    401  K36401      0.0000
     25 C26       -26.6520   10.0050  -38.3410 C.3    401  K36401      0.0000
     26 C27       -26.1770    9.5820  -36.9230 C.3    401  K36401      0.0000
     27 N28       -24.8080   10.0930  -36.8360 N.am   401  K36401      0.0000
     28 C29       -24.4690   10.9810  -37.8830 C.2    401  K36401      0.0000
     29 O30       -23.3990   11.5270  -38.0210 O.2    401  K36401      0.0000
     30 H         -25.6558    7.8203  -45.0045 H      401  K36401      0.0000
     31 H         -27.1956    6.9608  -44.9811 H      401  K36401      0.0000
     32 H         -23.5195    6.5808  -45.4897 H      401  K36401      0.0000
     33 H         -22.4688    4.5413  -46.4505 H      401  K36401      0.0000
     34 H         -23.7741    2.4102  -46.7428 H      401  K36401      0.0000
     35 H         -26.1969    2.3764  -46.0767 H      401  K36401      0.0000
     36 H         -27.2544    4.4059  -45.0900 H      401  K36401      0.0000
     37 H         -28.2652    8.7911  -43.6072 H      401  K36401      0.0000
     38 H         -26.3744   11.1131  -43.4241 H      401  K36401      0.0000
     39 H         -28.6163   12.3869  -43.7577 H      401  K36401      0.0000
     40 H         -29.4578   10.8280  -43.7592 H      401  K36401      0.0000
     41 H         -28.3361   10.1677  -45.8343 H      401  K36401      0.0000
     42 H         -29.2779   11.9317  -47.3914 H      401  K36401      0.0000
     43 H         -29.3701   13.1170  -46.0469 H      401  K36401      0.0000
     44 H         -30.4079   11.6517  -46.0303 H      401  K36401      0.0000
     45 H         -26.7810   11.8123  -47.0171 H      401  K36401      0.0000
     46 H         -26.0710   11.1035  -45.5505 H      401  K36401      0.0000
     47 H         -26.7069   12.7845  -45.5178 H      401  K36401      0.0000
     48 H         -26.5119   13.1109  -41.6803 H      401  K36401      0.0000
     49 H         -28.4011   12.5617  -39.4461 H      401  K36401      0.0000
     50 H         -28.2752   14.8282  -40.5327 H      401  K36401      0.0000
     51 H         -26.5996   14.9730  -39.9680 H      401  K36401      0.0000
     52 H         -28.9609   14.7913  -38.4096 H      401  K36401      0.0000
     53 H         -26.7120   12.7034  -37.6467 H      401  K36401      0.0000
     54 H         -25.4451   13.2950  -38.7593 H      401  K36401      0.0000
     55 H         -25.3741   10.9588  -39.8674 H      401  K36401      0.0000
     56 H         -26.5697    9.1351  -39.0331 H      401  K36401      0.0000
     57 H         -27.7165   10.3262  -38.3301 H      401  K36401      0.0000
     58 H         -26.2234    8.4767  -36.8006 H      401  K36401      0.0000
     59 H         -26.8257   10.0425  -36.1437 H      401  K36401      0.0000
     60 H         -24.1363    9.8475  -36.0977 H      401  K36401      0.0000
@<TRIPOS>BOND
     1     1     2    1
     2     1     5    1
     3     1    30    1
     4     1    31    1
     5     2     3    1
     6     3     4    2
     7     3    11    1
     8     5     6   ar
     9     5    10   ar
    10     6     7   ar
    11     6    32    1
    12     7     8   ar
    13     7    33    1
    14     8     9   ar
    15     8    34    1
    16     9    10   ar
    17     9    35    1
    18    10    36    1
    19    11    12    1
    20    11    37    1
    21    12    13    1
    22    12    15    1
    23    12    38    1
    24    13    14    2
    25    13    19    1
    26    15    16    1
    27    15    39    1
    28    15    40    1
    29    16    17    1
    30    16    18    1
    31    16    41    1
    32    17    42    1
    33    17    43    1
    34    17    44    1
    35    18    45    1
    36    18    46    1
    37    18    47    1
    38    19    20    1
    39    19    48    1
    40    20    21    1
    41    20    23    1
    42    20    49    1
    43    21    22    1
    44    21    50    1
    45    21    51    1
    46    22    52    1
    47    23    24    1
    48    23    53    1
    49    23    54    1
    50    24    25    1
    51    24    28    1
    52    24    55    1
    53    25    26    1
    54    25    56    1
    55    25    57    1
    56    26    27    1
    57    26    58    1
    58    26    59    1
    59    27    28    1
    60    27    60    1
    61    28    29    2

