@<TRIPOS>MOLECULE
ACY_2_A_402
 10 9 0 0 0
SMALL
NO_CHARGES

@<TRIPOS>ATOM
      1 C          -2.9520   -2.6780   51.8280 C.2    402  ACY402      0.0000
      2 O          -2.0390   -2.9010   50.8270 O.co2  402  ACY402      0.0000
      3 OXT        -2.9430   -1.9680   52.9970 O.co2  402  ACY402      0.0000
      4 CH3        -4.1000   -3.6490   51.8370 C.3    402  ACY402      0.0000
      5 H          -3.5944   -1.9331   51.2326 H      402  ACY402      0.0000
      6 H          -2.5612   -3.0894   49.6444 H      402  ACY402      0.0000
      7 H          -4.0355   -1.2974   53.2514 H      402  ACY402      0.0000
      8 H          -5.0138   -3.2529   52.3361 H      402  ACY402      0.0000
      9 H          -3.8062   -4.5684   52.3920 H      402  ACY402      0.0000
     10 H          -4.4012   -3.9774   50.8162 H      402  ACY402      0.0000
@<TRIPOS>BOND
     1     1     2    1
     2     1     3    1
     3     1     4    1
     4     1     5    1
     5     2     6    1
     6     3     7    1
     7     4     8    1
     8     4     9    1
     9     4    10    1

