TYZ_1_A_201
  -ISIS-            3D

 21 21  0  0  0  0  0  0  0  0  1 V2000
  -45.2720  -29.0170    1.3590 O   0  0  0  0  0
  -43.9880  -28.9880    3.1180 O   0  0  0  0  0
  -45.1150  -28.9850    2.5950 C   0  0  0  0  0
  -46.3170  -29.0190    3.5080 C   0  0  0  0  0
  -46.1500  -29.0510    4.8700 C   0  0  0  0  0
  -47.2440  -29.1220    5.7160 C   0  0  0  0  0
  -48.5280  -29.1490    5.1990 C   0  0  0  0  0
  -48.6740  -29.1150    3.8450 C   0  0  0  0  0
  -47.6020  -29.0620    2.9830 C   0  0  0  0  0
  -51.0350  -29.3560    5.6240 C   0  0  0  0  0
  -49.6860  -29.2700    6.0990 N   0  0  0  0  0
  -51.2620  -29.2570    4.5200 O   0  0  0  0  0
  -52.1930  -29.5110    6.5520 C   0  0  0  0  0
  -45.1397  -29.0278    5.3120 H   0  0  0  0  0
  -47.0814  -29.1597    6.8062 H   0  0  0  0  0
  -49.6551  -29.1397    3.3592 H   0  0  0  0  0
  -47.7725  -29.0519    1.8935 H   0  0  0  0  0
  -49.4523  -29.3017    7.0996 H   0  0  0  0  0
  -53.1628  -29.5603    6.0085 H   0  0  0  0  0
  -52.2462  -28.6548    7.2604 H   0  0  0  0  0
  -52.0941  -30.4439    7.1499 H   0  0  0  0  0
  1  3  2  0  0  0
  2  3  2  0  0  0
  3  4  1  0  0  0
  4  5  2  0  0  0
  4  9  1  0  0  0
  5  6  1  0  0  0
  5 14  1  0  0  0
  6  7  2  0  0  0
  6 15  1  0  0  0
  7  8  1  0  0  0
  7 11  1  0  0  0
  8  9  2  0  0  0
  8 16  1  0  0  0
  9 17  1  0  0  0
 10 11  1  0  0  0
 10 12  2  0  0  0
 10 13  1  0  0  0
 11 18  1  0  0  0
 13 19  1  0  0  0
 13 20  1  0  0  0
 13 21  1  0  0  0
M  END
$$$$
