EDO_1_A_201
  -ISIS-            3D

 10  9  0  0  0  0  0  0  0  0  1 V2000
   23.0680   45.9590   35.3440 C   0  0  0  0  0
   24.3280   45.3260   35.2970 O   0  0  0  0  0
   22.0640   45.2850   36.2100 C   0  0  0  0  0
   22.1000   43.8750   36.1710 O   0  0  0  0  0
   22.6671   46.0010   34.3075 H   0  0  0  0  0
   23.1997   47.0143   35.6659 H   0  0  0  0  0
   24.8646   45.7602   34.6464 H   0  0  0  0  0
   21.0419   45.6329   35.9477 H   0  0  0  0  0
   22.2368   45.6028   37.2617 H   0  0  0  0  0
   21.5030   43.5353   36.8253 H   0  0  0  0  0
  1  2  1  0  0  0
  1  3  1  0  0  0
  1  5  1  0  0  0
  1  6  1  0  0  0
  2  7  1  0  0  0
  3  4  1  0  0  0
  3  8  1  0  0  0
  3  9  1  0  0  0
  4 10  1  0  0  0
M  END
$$$$
