EDO_1_A_203
  -ISIS-            3D

 10  9  0  0  0  0  0  0  0  0  1 V2000
   26.8690   62.7310   22.6030 C   0  0  0  0  0
   26.6270   63.2430   23.9070 O   0  0  0  0  0
   25.6630   62.7360   21.7380 C   0  0  0  0  0
   24.9980   61.4820   21.7330 O   0  0  0  0  0
   27.2899   61.7055   22.6743 H   0  0  0  0  0
   27.6591   63.3571   22.1343 H   0  0  0  0  0
   27.3951   63.0831   24.4394 H   0  0  0  0  0
   25.9564   62.9724   20.6922 H   0  0  0  0  0
   24.9605   63.5358   22.0546 H   0  0  0  0  0
   24.1727   61.5817   21.2770 H   0  0  0  0  0
  1  2  1  0  0  0
  1  3  1  0  0  0
  1  5  1  0  0  0
  1  6  1  0  0  0
  2  7  1  0  0  0
  3  4  1  0  0  0
  3  8  1  0  0  0
  3  9  1  0  0  0
  4 10  1  0  0  0
M  END
$$$$
