@<TRIPOS>MOLECULE
EDO_1_A_203
 10 9 0 0 0
SMALL
NO_CHARGES

@<TRIPOS>ATOM
      1 C1         26.8690   62.7310   22.6030 C.3    203  EDO203      0.0000
      2 O1         26.6270   63.2430   23.9070 O.3    203  EDO203      0.0000
      3 C2         25.6630   62.7360   21.7380 C.3    203  EDO203      0.0000
      4 O2         24.9980   61.4820   21.7330 O.3    203  EDO203      0.0000
      5 H          27.2899   61.7055   22.6743 H      203  EDO203      0.0000
      6 H          27.6591   63.3571   22.1343 H      203  EDO203      0.0000
      7 H          27.3951   63.0831   24.4394 H      203  EDO203      0.0000
      8 H          25.9564   62.9724   20.6922 H      203  EDO203      0.0000
      9 H          24.9605   63.5358   22.0546 H      203  EDO203      0.0000
     10 H          24.1727   61.5817   21.2770 H      203  EDO203      0.0000
@<TRIPOS>BOND
     1     1     2    1
     2     1     3    1
     3     1     5    1
     4     1     6    1
     5     2     7    1
     6     3     4    1
     7     3     8    1
     8     3     9    1
     9     4    10    1

