@<TRIPOS>MOLECULE
23H_2_A_401
 71 74 0 0 0
SMALL
NO_CHARGES

@<TRIPOS>ATOM
      1 O1         32.5680   16.2900  -26.0530 O.2    401  23H401      0.0000
      2 C1         33.1950   15.2460  -25.8150 C.2    401  23H401      0.0000
      3 N1         34.5050   15.2130  -26.1110 N.am   401  23H401      0.0000
      4 C2         35.2280   16.4110  -26.6300 C.3    401  23H401      0.0000
      5 C3         35.2990   17.4800  -25.5600 C.2    401  23H401      0.0000
      6 O2         35.5430   17.1740  -24.3950 O.2    401  23H401      0.0000
      7 N2         35.0680   18.7320  -25.9670 N.am   401  23H401      0.0000
      8 C24        35.1420   19.9760  -25.1720 C.3    401  23H401      0.0000
      9 C25        36.6170   20.2090  -24.7890 C.3    401  23H401      0.0000
     10 C27        34.2910   19.9790  -23.9120 C.3    401  23H401      0.0000
     11 C28        32.8790   19.4530  -24.0790 C.3    401  23H401      0.0000
     12 C26        34.6950   21.0950  -26.1280 C.3    401  23H401      0.0000
     13 C19        36.5860   16.1180  -27.1860 C.ar   401  23H401      0.0000
     14 C20        37.7300   16.2110  -26.3930 C.ar   401  23H401      0.0000
     15 C21        38.7620   15.8440  -27.2250 C.ar   401  23H401      0.0000
     16 C22        38.2450   15.5500  -28.4710 C.ar   401  23H401      0.0000
     17 N7         36.9110   15.7230  -28.4150 N.ar   401  23H401      0.0000
     18 C23        35.9540   15.5150  -29.5320 C.3    401  23H401      0.0000
     19 C11        35.2590   14.0340  -25.8250 C.ar   401  23H401      0.0000
     20 C12        36.1630   14.0780  -24.7740 C.ar   401  23H401      0.0000
     21 C13        36.9600   12.9730  -24.4510 C.ar   401  23H401      0.0000
     22 C16        35.1530   12.8560  -26.5660 C.ar   401  23H401      0.0000
     23 C15        35.9330   11.7370  -26.2300 C.ar   401  23H401      0.0000
     24 C14        36.8440   11.7860  -25.1730 C.ar   401  23H401      0.0000
     25 N6         37.5630   10.6270  -24.9300 N.am   401  23H401      0.0000
     26 C17        38.5360   10.3850  -24.0450 C.2    401  23H401      0.0000
     27 C18        39.2090    9.0580  -23.9220 C.3    401  23H401      0.0000
     28 O3         38.9220   11.2790  -23.3060 O.2    401  23H401      0.0000
     29 C4         32.4530   14.0520  -25.2290 C.3    401  23H401      0.0000
     30 N3         31.1740   14.5470  -24.7930 N.ar   401  23H401      0.0000
     31 N4         30.0630   14.3230  -25.5490 N.ar   401  23H401      0.0000
     32 N5         28.9700   14.9430  -25.0040 N.ar   401  23H401      0.0000
     33 C10        29.4370   15.5850  -23.9010 C.ar   401  23H401      0.0000
     34 C5         30.8150   15.3490  -23.7790 C.ar   401  23H401      0.0000
     35 C9         28.7390   16.3760  -22.9950 C.ar   401  23H401      0.0000
     36 C8         29.4580   16.9400  -21.9270 C.ar   401  23H401      0.0000
     37 C7         30.8360   16.7030  -21.8040 C.ar   401  23H401      0.0000
     38 C6         31.5430   15.9140  -22.7190 C.ar   401  23H401      0.0000
     39 H          34.6327   16.8248  -27.4788 H      401  23H401      0.0000
     40 H          34.8194   18.8507  -26.9588 H      401  23H401      0.0000
     41 H          36.7558   21.1755  -24.2548 H      401  23H401      0.0000
     42 H          37.2760   20.2342  -25.6858 H      401  23H401      0.0000
     43 H          37.0105   19.4102  -24.1222 H      401  23H401      0.0000
     44 H          34.2498   21.0107  -23.4921 H      401  23H401      0.0000
     45 H          34.7904   19.3601  -23.1307 H      401  23H401      0.0000
     46 H          32.3156   19.4977  -23.1197 H      401  23H401      0.0000
     47 H          32.8610   18.3922  -24.4095 H      401  23H401      0.0000
     48 H          32.2964   20.0416  -24.8211 H      401  23H401      0.0000
     49 H          34.7277   22.0929  -25.6363 H      401  23H401      0.0000
     50 H          33.6539   20.9487  -26.4923 H      401  23H401      0.0000
     51 H          35.3473   21.1624  -27.0278 H      401  23H401      0.0000
     52 H          37.8214   16.5062  -25.3393 H      401  23H401      0.0000
     53 H          39.8242   15.7940  -26.9445 H      401  23H401      0.0000
     54 H          38.7378   15.2257  -29.3963 H      401  23H401      0.0000
     55 H          36.4393   15.0286  -30.4062 H      401  23H401      0.0000
     56 H          35.5336   16.4838  -29.8809 H      401  23H401      0.0000
     57 H          35.1059   14.8652  -29.2234 H      401  23H401      0.0000
     58 H          36.2673   14.9880  -24.1657 H      401  23H401      0.0000
     59 H          37.6637   13.0683  -23.6121 H      401  23H401      0.0000
     60 H          34.4539   12.8029  -27.4169 H      401  23H401      0.0000
     61 H          35.8102   10.8198  -26.8307 H      401  23H401      0.0000
     62 H          37.2683    9.8612  -25.5497 H      401  23H401      0.0000
     63 H          39.9895    9.0610  -23.1291 H      401  23H401      0.0000
     64 H          39.7011    8.7753  -24.8789 H      401  23H401      0.0000
     65 H          38.4721    8.2645  -23.6668 H      401  23H401      0.0000
     66 H          32.9828   13.6311  -24.3458 H      401  23H401      0.0000
     67 H          32.3024   13.2423  -25.9762 H      401  23H401      0.0000
     68 H          27.6576   16.5531  -23.1108 H      401  23H401      0.0000
     69 H          28.9384   17.5707  -21.1861 H      401  23H401      0.0000
     70 H          31.3830   17.1565  -20.9596 H      401  23H401      0.0000
     71 H          32.6260   15.7417  -22.6143 H      401  23H401      0.0000
@<TRIPOS>BOND
     1     1     2    2
     2     2     3    1
     3     2    29    1
     4     3     4    1
     5     3    19    1
     6     4     5    1
     7     4    13    1
     8     4    39    1
     9     5     6    2
    10     5     7    1
    11     7     8    1
    12     7    40    1
    13     8     9    1
    14     8    10    1
    15     8    12    1
    16     9    41    1
    17     9    42    1
    18     9    43    1
    19    10    11    1
    20    10    44    1
    21    10    45    1
    22    11    46    1
    23    11    47    1
    24    11    48    1
    25    12    49    1
    26    12    50    1
    27    12    51    1
    28    13    14   ar
    29    13    17   ar
    30    14    15   ar
    31    14    52    1
    32    15    16   ar
    33    15    53    1
    34    16    17   ar
    35    16    54    1
    36    17    18    1
    37    18    55    1
    38    18    56    1
    39    18    57    1
    40    19    20   ar
    41    19    22   ar
    42    20    21   ar
    43    20    58    1
    44    21    24   ar
    45    21    59    1
    46    22    23   ar
    47    22    60    1
    48    23    24   ar
    49    23    61    1
    50    24    25    1
    51    25    26    1
    52    25    62    1
    53    26    27    1
    54    26    28    2
    55    27    63    1
    56    27    64    1
    57    27    65    1
    58    29    30    1
    59    29    66    1
    60    29    67    1
    61    30    31   ar
    62    30    34   ar
    63    31    32   ar
    64    32    33   ar
    65    33    34   ar
    66    33    35   ar
    67    34    38   ar
    68    35    36   ar
    69    35    68    1
    70    36    37   ar
    71    36    69    1
    72    37    38   ar
    73    37    70    1
    74    38    71    1

