23H_1_A_401
  -ISIS-            3D

 71 74  0  0  0  0  0  0  0  0  1 V2000
  -13.4120   16.2900  -23.5140 O   0  0  0  0  0
  -14.0390   15.2460  -23.7520 C   0  0  0  0  0
  -15.3490   15.2130  -23.4560 N   0  0  0  0  0
  -16.0720   16.4110  -22.9370 C   0  0  0  0  0
  -16.1430   17.4800  -24.0070 C   0  0  0  0  0
  -16.3870   17.1740  -25.1720 O   0  0  0  0  0
  -15.9120   18.7320  -23.6000 N   0  0  0  0  0
  -15.9860   19.9760  -24.3950 C   0  0  0  0  0
  -17.4610   20.2090  -24.7780 C   0  0  0  0  0
  -15.1350   19.9790  -25.6550 C   0  0  0  0  0
  -13.7230   19.4530  -25.4880 C   0  0  0  0  0
  -15.5390   21.0950  -23.4390 C   0  0  0  0  0
  -17.4300   16.1180  -22.3810 C   0  0  0  0  0
  -18.5740   16.2110  -23.1740 C   0  0  0  0  0
  -19.6060   15.8440  -22.3420 C   0  0  0  0  0
  -19.0890   15.5500  -21.0960 C   0  0  0  0  0
  -17.7550   15.7230  -21.1520 N   0  0  0  0  0
  -16.7980   15.5150  -20.0350 C   0  0  0  0  0
  -16.1030   14.0340  -23.7420 C   0  0  0  0  0
  -17.0070   14.0780  -24.7930 C   0  0  0  0  0
  -17.8040   12.9730  -25.1160 C   0  0  0  0  0
  -15.9970   12.8560  -23.0010 C   0  0  0  0  0
  -16.7770   11.7370  -23.3370 C   0  0  0  0  0
  -17.6880   11.7860  -24.3940 C   0  0  0  0  0
  -18.4070   10.6270  -24.6370 N   0  0  0  0  0
  -19.3800   10.3850  -25.5220 C   0  0  0  0  0
  -20.0530    9.0580  -25.6450 C   0  0  0  0  0
  -19.7660   11.2790  -26.2610 O   0  0  0  0  0
  -13.2970   14.0520  -24.3380 C   0  0  0  0  0
  -12.0180   14.5470  -24.7740 N   0  0  0  0  0
  -10.9070   14.3230  -24.0180 N   0  0  0  0  0
   -9.8140   14.9430  -24.5630 N   0  0  0  0  0
  -10.2810   15.5850  -25.6660 C   0  0  0  0  0
  -11.6590   15.3490  -25.7880 C   0  0  0  0  0
   -9.5830   16.3760  -26.5720 C   0  0  0  0  0
  -10.3020   16.9400  -27.6400 C   0  0  0  0  0
  -11.6800   16.7030  -27.7630 C   0  0  0  0  0
  -12.3870   15.9140  -26.8480 C   0  0  0  0  0
  -15.4767   16.8248  -22.0882 H   0  0  0  0  0
  -15.6634   18.8507  -22.6082 H   0  0  0  0  0
  -17.5998   21.1756  -25.3122 H   0  0  0  0  0
  -18.1200   20.2342  -23.8812 H   0  0  0  0  0
  -17.8545   19.4102  -25.4448 H   0  0  0  0  0
  -15.0938   21.0107  -26.0749 H   0  0  0  0  0
  -15.6344   19.3601  -26.4363 H   0  0  0  0  0
  -13.1596   19.4979  -26.4472 H   0  0  0  0  0
  -13.7050   18.3921  -25.1577 H   0  0  0  0  0
  -13.1405   20.0415  -24.7458 H   0  0  0  0  0
  -15.5714   22.0929  -23.9308 H   0  0  0  0  0
  -14.4980   20.9485  -23.0744 H   0  0  0  0  0
  -16.1915   21.1627  -22.5394 H   0  0  0  0  0
  -18.6654   16.5062  -24.2277 H   0  0  0  0  0
  -20.6682   15.7940  -22.6225 H   0  0  0  0  0
  -19.5818   15.2257  -20.1707 H   0  0  0  0  0
  -17.2831   15.0274  -19.1614 H   0  0  0  0  0
  -16.3786   16.4840  -19.6852 H   0  0  0  0  0
  -15.9491   14.8663  -20.3440 H   0  0  0  0  0
  -17.1113   14.9880  -25.4013 H   0  0  0  0  0
  -18.5077   13.0683  -25.9549 H   0  0  0  0  0
  -15.2979   12.8029  -22.1501 H   0  0  0  0  0
  -16.6542   10.8198  -22.7363 H   0  0  0  0  0
  -18.1123    9.8612  -24.0173 H   0  0  0  0  0
  -20.8335    9.0610  -26.4379 H   0  0  0  0  0
  -20.5451    8.7753  -24.6882 H   0  0  0  0  0
  -19.3161    8.2645  -25.9002 H   0  0  0  0  0
  -13.8268   13.6311  -25.2212 H   0  0  0  0  0
  -13.1464   13.2423  -23.5908 H   0  0  0  0  0
   -8.5016   16.5531  -26.4562 H   0  0  0  0  0
   -9.7824   17.5707  -28.3809 H   0  0  0  0  0
  -12.2270   17.1565  -28.6074 H   0  0  0  0  0
  -13.4700   15.7417  -26.9527 H   0  0  0  0  0
  1  2  2  0  0  0
  2  3  1  0  0  0
  2 29  1  0  0  0
  3  4  1  0  0  0
  3 19  1  0  0  0
  4  5  1  0  0  0
  4 13  1  0  0  0
  4 39  1  0  0  0
  5  6  2  0  0  0
  5  7  1  0  0  0
  7  8  1  0  0  0
  7 40  1  0  0  0
  8  9  1  0  0  0
  8 10  1  0  0  0
  8 12  1  0  0  0
  9 41  1  0  0  0
  9 42  1  0  0  0
  9 43  1  0  0  0
 10 11  1  0  0  0
 10 44  1  0  0  0
 10 45  1  0  0  0
 11 46  1  0  0  0
 11 47  1  0  0  0
 11 48  1  0  0  0
 12 49  1  0  0  0
 12 50  1  0  0  0
 12 51  1  0  0  0
 13 14  2  0  0  0
 13 17  1  0  0  0
 14 15  1  0  0  0
 14 52  1  0  0  0
 15 16  2  0  0  0
 15 53  1  0  0  0
 16 17  1  0  0  0
 16 54  1  0  0  0
 17 18  1  0  0  0
 18 55  1  0  0  0
 18 56  1  0  0  0
 18 57  1  0  0  0
 19 20  2  0  0  0
 19 22  1  0  0  0
 20 21  1  0  0  0
 20 58  1  0  0  0
 21 24  2  0  0  0
 21 59  1  0  0  0
 22 23  2  0  0  0
 22 60  1  0  0  0
 23 24  1  0  0  0
 23 61  1  0  0  0
 24 25  1  0  0  0
 25 26  1  0  0  0
 25 62  1  0  0  0
 26 27  1  0  0  0
 26 28  2  0  0  0
 27 63  1  0  0  0
 27 64  1  0  0  0
 27 65  1  0  0  0
 29 30  1  0  0  0
 29 66  1  0  0  0
 29 67  1  0  0  0
 30 31  1  0  0  0
 30 34  1  0  0  0
 31 32  1  0  0  0
 32 33  2  0  0  0
 33 34  1  0  0  0
 33 35  1  0  0  0
 34 38  2  0  0  0
 35 36  1  0  0  0
 35 68  1  0  0  0
 36 37  1  0  0  0
 36 69  1  0  0  0
 37 38  1  0  0  0
 37 70  1  0  0  0
 38 71  1  0  0  0
M  END
$$$$
