@<TRIPOS>MOLECULE
23H_1_A_401
 71 74 0 0 0
SMALL
NO_CHARGES

@<TRIPOS>ATOM
      1 O1        -13.4120   16.2900  -23.5140 O.2    401  23H401      0.0000
      2 C1        -14.0390   15.2460  -23.7520 C.2    401  23H401      0.0000
      3 N1        -15.3490   15.2130  -23.4560 N.am   401  23H401      0.0000
      4 C2        -16.0720   16.4110  -22.9370 C.3    401  23H401      0.0000
      5 C3        -16.1430   17.4800  -24.0070 C.2    401  23H401      0.0000
      6 O2        -16.3870   17.1740  -25.1720 O.2    401  23H401      0.0000
      7 N2        -15.9120   18.7320  -23.6000 N.am   401  23H401      0.0000
      8 C24       -15.9860   19.9760  -24.3950 C.3    401  23H401      0.0000
      9 C25       -17.4610   20.2090  -24.7780 C.3    401  23H401      0.0000
     10 C27       -15.1350   19.9790  -25.6550 C.3    401  23H401      0.0000
     11 C28       -13.7230   19.4530  -25.4880 C.3    401  23H401      0.0000
     12 C26       -15.5390   21.0950  -23.4390 C.3    401  23H401      0.0000
     13 C19       -17.4300   16.1180  -22.3810 C.ar   401  23H401      0.0000
     14 C20       -18.5740   16.2110  -23.1740 C.ar   401  23H401      0.0000
     15 C21       -19.6060   15.8440  -22.3420 C.ar   401  23H401      0.0000
     16 C22       -19.0890   15.5500  -21.0960 C.ar   401  23H401      0.0000
     17 N7        -17.7550   15.7230  -21.1520 N.ar   401  23H401      0.0000
     18 C23       -16.7980   15.5150  -20.0350 C.3    401  23H401      0.0000
     19 C11       -16.1030   14.0340  -23.7420 C.ar   401  23H401      0.0000
     20 C12       -17.0070   14.0780  -24.7930 C.ar   401  23H401      0.0000
     21 C13       -17.8040   12.9730  -25.1160 C.ar   401  23H401      0.0000
     22 C16       -15.9970   12.8560  -23.0010 C.ar   401  23H401      0.0000
     23 C15       -16.7770   11.7370  -23.3370 C.ar   401  23H401      0.0000
     24 C14       -17.6880   11.7860  -24.3940 C.ar   401  23H401      0.0000
     25 N6        -18.4070   10.6270  -24.6370 N.am   401  23H401      0.0000
     26 C17       -19.3800   10.3850  -25.5220 C.2    401  23H401      0.0000
     27 C18       -20.0530    9.0580  -25.6450 C.3    401  23H401      0.0000
     28 O3        -19.7660   11.2790  -26.2610 O.2    401  23H401      0.0000
     29 C4        -13.2970   14.0520  -24.3380 C.3    401  23H401      0.0000
     30 N3        -12.0180   14.5470  -24.7740 N.ar   401  23H401      0.0000
     31 N4        -10.9070   14.3230  -24.0180 N.ar   401  23H401      0.0000
     32 N5         -9.8140   14.9430  -24.5630 N.ar   401  23H401      0.0000
     33 C10       -10.2810   15.5850  -25.6660 C.ar   401  23H401      0.0000
     34 C5        -11.6590   15.3490  -25.7880 C.ar   401  23H401      0.0000
     35 C9         -9.5830   16.3760  -26.5720 C.ar   401  23H401      0.0000
     36 C8        -10.3020   16.9400  -27.6400 C.ar   401  23H401      0.0000
     37 C7        -11.6800   16.7030  -27.7630 C.ar   401  23H401      0.0000
     38 C6        -12.3870   15.9140  -26.8480 C.ar   401  23H401      0.0000
     39 H         -15.4767   16.8248  -22.0882 H      401  23H401      0.0000
     40 H         -15.6634   18.8507  -22.6082 H      401  23H401      0.0000
     41 H         -17.5998   21.1756  -25.3122 H      401  23H401      0.0000
     42 H         -18.1200   20.2342  -23.8812 H      401  23H401      0.0000
     43 H         -17.8545   19.4102  -25.4448 H      401  23H401      0.0000
     44 H         -15.0938   21.0107  -26.0749 H      401  23H401      0.0000
     45 H         -15.6344   19.3601  -26.4363 H      401  23H401      0.0000
     46 H         -13.1596   19.4979  -26.4472 H      401  23H401      0.0000
     47 H         -13.7050   18.3921  -25.1577 H      401  23H401      0.0000
     48 H         -13.1405   20.0415  -24.7458 H      401  23H401      0.0000
     49 H         -15.5714   22.0929  -23.9308 H      401  23H401      0.0000
     50 H         -14.4980   20.9485  -23.0744 H      401  23H401      0.0000
     51 H         -16.1915   21.1627  -22.5394 H      401  23H401      0.0000
     52 H         -18.6654   16.5062  -24.2277 H      401  23H401      0.0000
     53 H         -20.6682   15.7940  -22.6225 H      401  23H401      0.0000
     54 H         -19.5818   15.2257  -20.1707 H      401  23H401      0.0000
     55 H         -17.2831   15.0274  -19.1614 H      401  23H401      0.0000
     56 H         -16.3786   16.4840  -19.6852 H      401  23H401      0.0000
     57 H         -15.9491   14.8663  -20.3440 H      401  23H401      0.0000
     58 H         -17.1113   14.9880  -25.4013 H      401  23H401      0.0000
     59 H         -18.5077   13.0683  -25.9549 H      401  23H401      0.0000
     60 H         -15.2979   12.8029  -22.1501 H      401  23H401      0.0000
     61 H         -16.6542   10.8198  -22.7363 H      401  23H401      0.0000
     62 H         -18.1123    9.8612  -24.0173 H      401  23H401      0.0000
     63 H         -20.8335    9.0610  -26.4379 H      401  23H401      0.0000
     64 H         -20.5451    8.7753  -24.6882 H      401  23H401      0.0000
     65 H         -19.3161    8.2645  -25.9002 H      401  23H401      0.0000
     66 H         -13.8268   13.6311  -25.2212 H      401  23H401      0.0000
     67 H         -13.1464   13.2423  -23.5908 H      401  23H401      0.0000
     68 H          -8.5016   16.5531  -26.4562 H      401  23H401      0.0000
     69 H          -9.7824   17.5707  -28.3809 H      401  23H401      0.0000
     70 H         -12.2270   17.1565  -28.6074 H      401  23H401      0.0000
     71 H         -13.4700   15.7417  -26.9527 H      401  23H401      0.0000
@<TRIPOS>BOND
     1     1     2    2
     2     2     3    1
     3     2    29    1
     4     3     4    1
     5     3    19    1
     6     4     5    1
     7     4    13    1
     8     4    39    1
     9     5     6    2
    10     5     7    1
    11     7     8    1
    12     7    40    1
    13     8     9    1
    14     8    10    1
    15     8    12    1
    16     9    41    1
    17     9    42    1
    18     9    43    1
    19    10    11    1
    20    10    44    1
    21    10    45    1
    22    11    46    1
    23    11    47    1
    24    11    48    1
    25    12    49    1
    26    12    50    1
    27    12    51    1
    28    13    14   ar
    29    13    17   ar
    30    14    15   ar
    31    14    52    1
    32    15    16   ar
    33    15    53    1
    34    16    17   ar
    35    16    54    1
    36    17    18    1
    37    18    55    1
    38    18    56    1
    39    18    57    1
    40    19    20   ar
    41    19    22   ar
    42    20    21   ar
    43    20    58    1
    44    21    24   ar
    45    21    59    1
    46    22    23   ar
    47    22    60    1
    48    23    24   ar
    49    23    61    1
    50    24    25    1
    51    25    26    1
    52    25    62    1
    53    26    27    1
    54    26    28    2
    55    27    63    1
    56    27    64    1
    57    27    65    1
    58    29    30    1
    59    29    66    1
    60    29    67    1
    61    30    31   ar
    62    30    34   ar
    63    31    32   ar
    64    32    33   ar
    65    33    34   ar
    66    33    35   ar
    67    34    38   ar
    68    35    36   ar
    69    35    68    1
    70    36    37   ar
    71    36    69    1
    72    37    38   ar
    73    37    70    1
    74    38    71    1

