DMS_1_A_403
  -ISIS-            3D

 11 10  0  0  0  0  0  0  0  0  1 V2000
  -15.9530    9.5220   -7.7210 S   0  0  0  0  0
  -17.1420   10.6830   -8.3900 O   0  0  0  0  0
  -14.4670   10.3780   -7.1470 C   0  0  0  0  0
  -16.5880    8.9430   -6.1190 C   0  0  0  0  0
  -18.2243   10.0466   -8.7417 H   0  0  0  0  0
  -13.7895    9.6358   -6.6794 H   0  0  0  0  0
  -14.7622   11.1565   -6.4153 H   0  0  0  0  0
  -13.9775   10.8435   -8.0257 H   0  0  0  0  0
  -15.8389    8.2620   -5.6676 H   0  0  0  0  0
  -17.5378    8.4015   -6.3010 H   0  0  0  0  0
  -16.7650    9.8213   -5.4663 H   0  0  0  0  0
  1  2  1  0  0  0
  1  3  1  0  0  0
  1  4  1  0  0  0
  2  5  1  0  0  0
  3  6  1  0  0  0
  3  7  1  0  0  0
  3  8  1  0  0  0
  4  9  1  0  0  0
  4 10  1  0  0  0
  4 11  1  0  0  0
M  END
$$$$
