@<TRIPOS>MOLECULE
DMS_1_A_403
 11 10 0 0 0
SMALL
NO_CHARGES

@<TRIPOS>ATOM
      1 S         -15.9530    9.5220   -7.7210 S.o    403  DMS403      0.0000
      2 O         -17.1420   10.6830   -8.3900 O.2    403  DMS403      0.0000
      3 C1        -14.4670   10.3780   -7.1470 C.3    403  DMS403      0.0000
      4 C2        -16.5880    8.9430   -6.1190 C.3    403  DMS403      0.0000
      5 H         -18.2243   10.0466   -8.7417 H      403  DMS403      0.0000
      6 H         -13.7895    9.6358   -6.6794 H      403  DMS403      0.0000
      7 H         -14.7622   11.1565   -6.4153 H      403  DMS403      0.0000
      8 H         -13.9775   10.8435   -8.0257 H      403  DMS403      0.0000
      9 H         -15.8389    8.2620   -5.6676 H      403  DMS403      0.0000
     10 H         -17.5378    8.4015   -6.3010 H      403  DMS403      0.0000
     11 H         -16.7650    9.8213   -5.4663 H      403  DMS403      0.0000
@<TRIPOS>BOND
     1     1     2    1
     2     1     3    1
     3     1     4    1
     4     2     5    1
     5     3     6    1
     6     3     7    1
     7     3     8    1
     8     4     9    1
     9     4    10    1
    10     4    11    1

