DMS_2_A_402
  -ISIS-            3D

 11 10  0  0  0  0  0  0  0  0  1 V2000
   41.2510    3.4840  -23.1990 S   0  0  0  0  0
   40.0670    2.7380  -24.3420 O   0  0  0  0  0
   40.4510    4.8230  -22.2780 C   0  0  0  0  0
   41.6020    2.3840  -21.8020 C   0  0  0  0  0
   40.6249    1.7289  -24.9510 H   0  0  0  0  0
   41.1795    5.2416  -21.5550 H   0  0  0  0  0
   39.5639    4.4165  -21.7521 H   0  0  0  0  0
   40.1426    5.6015  -23.0043 H   0  0  0  0  0
   42.2891    2.9038  -21.1047 H   0  0  0  0  0
   42.0820    1.4676  -22.2000 H   0  0  0  0  0
   40.6483    2.1290  -21.2980 H   0  0  0  0  0
  1  2  1  0  0  0
  1  3  1  0  0  0
  1  4  1  0  0  0
  2  5  1  0  0  0
  3  6  1  0  0  0
  3  7  1  0  0  0
  3  8  1  0  0  0
  4  9  1  0  0  0
  4 10  1  0  0  0
  4 11  1  0  0  0
M  END
$$$$
