@<TRIPOS>MOLECULE
DMS_2_A_403
 11 10 0 0 0
SMALL
NO_CHARGES

@<TRIPOS>ATOM
      1 S          35.1090    9.5220  -41.8460 S.o    403  DMS403      0.0000
      2 O          36.2980   10.6830  -41.1770 O.2    403  DMS403      0.0000
      3 C1         33.6230   10.3780  -42.4200 C.3    403  DMS403      0.0000
      4 C2         35.7440    8.9430  -43.4480 C.3    403  DMS403      0.0000
      5 H          37.3803   10.0466  -40.8253 H      403  DMS403      0.0000
      6 H          32.9455    9.6358  -42.8876 H      403  DMS403      0.0000
      7 H          33.9182   11.1565  -43.1517 H      403  DMS403      0.0000
      8 H          33.1335   10.8435  -41.5412 H      403  DMS403      0.0000
      9 H          34.9949    8.2620  -43.8994 H      403  DMS403      0.0000
     10 H          36.6938    8.4015  -43.2660 H      403  DMS403      0.0000
     11 H          35.9210    9.8213  -44.1007 H      403  DMS403      0.0000
@<TRIPOS>BOND
     1     1     2    1
     2     1     3    1
     3     1     4    1
     4     2     5    1
     5     3     6    1
     6     3     7    1
     7     3     8    1
     8     4     9    1
     9     4    10    1
    10     4    11    1

