@<TRIPOS>MOLECULE
DMS_1_A_402
 11 10 0 0 0
SMALL
NO_CHARGES

@<TRIPOS>ATOM
      1 S         -22.0950    3.4840  -26.3680 S.o    402  DMS402      0.0000
      2 O         -20.9110    2.7380  -25.2250 O.2    402  DMS402      0.0000
      3 C1        -21.2950    4.8230  -27.2890 C.3    402  DMS402      0.0000
      4 C2        -22.4460    2.3840  -27.7650 C.3    402  DMS402      0.0000
      5 H         -21.4689    1.7289  -24.6160 H      402  DMS402      0.0000
      6 H         -22.0235    5.2416  -28.0120 H      402  DMS402      0.0000
      7 H         -20.4080    4.4165  -27.8149 H      402  DMS402      0.0000
      8 H         -20.9866    5.6015  -26.5627 H      402  DMS402      0.0000
      9 H         -23.1331    2.9038  -28.4623 H      402  DMS402      0.0000
     10 H         -22.9260    1.4676  -27.3670 H      402  DMS402      0.0000
     11 H         -21.4923    2.1290  -28.2690 H      402  DMS402      0.0000
@<TRIPOS>BOND
     1     1     2    1
     2     1     3    1
     3     1     4    1
     4     2     5    1
     5     3     6    1
     6     3     7    1
     7     3     8    1
     8     4     9    1
     9     4    10    1
    10     4    11    1

