@<TRIPOS>MOLECULE
DMS_1_A_402
 10 9 0 0 0
SMALL
NO_CHARGES

@<TRIPOS>ATOM
      1 S           6.1220   -1.0550   -6.2530 S.o    402  DMS402      0.0000
      2 O           7.1150   -0.7640   -7.2990 O.2    402  DMS402      0.0000
      3 C1          6.9940   -0.9820   -4.6850 C.3    402  DMS402      0.0000
      4 C2          5.8350   -2.7900   -6.2580 C.3    402  DMS402      0.0000
      5 H           6.3234   -1.3143   -3.8663 H      402  DMS402      0.0000
      6 H           7.3065    0.0644   -4.4903 H      402  DMS402      0.0000
      7 H           7.8946   -1.6291   -4.7139 H      402  DMS402      0.0000
      8 H           5.1948   -3.0703   -5.3967 H      402  DMS402      0.0000
      9 H           6.7946   -3.3435   -6.2001 H      402  DMS402      0.0000
     10 H           5.3137   -3.0731   -7.1954 H      402  DMS402      0.0000
@<TRIPOS>BOND
     1     1     2    2
     2     1     3    1
     3     1     4    1
     4     3     5    1
     5     3     6    1
     6     3     7    1
     7     4     8    1
     8     4     9    1
     9     4    10    1

