@<TRIPOS>MOLECULE
DMS_1_A_401
 10 9 0 0 0
SMALL
NO_CHARGES

@<TRIPOS>ATOM
      1 S           6.9750  -27.9970   21.5880 S.o    401  DMS401      0.0000
      2 O           7.6870  -26.9780   22.3830 O.2    401  DMS401      0.0000
      3 C1          5.7320  -28.6920   22.6790 C.3    401  DMS401      0.0000
      4 C2          5.9100  -27.1130   20.5110 C.3    401  DMS401      0.0000
      5 H           5.0645  -29.3662   22.1044 H      401  DMS401      0.0000
      6 H           5.1314  -27.8828   23.1430 H      401  DMS401      0.0000
      7 H           6.2327  -29.2766   23.4779 H      401  DMS401      0.0000
      8 H           5.2376  -27.8189   19.9824 H      401  DMS401      0.0000
      9 H           6.5161  -26.5677   19.7588 H      401  DMS401      0.0000
     10 H           5.3003  -26.3819   21.0806 H      401  DMS401      0.0000
@<TRIPOS>BOND
     1     1     2    2
     2     1     3    1
     3     1     4    1
     4     3     5    1
     5     3     6    1
     6     3     7    1
     7     4     8    1
     8     4     9    1
     9     4    10    1

