ACY_3_B_407
  -ISIS-            3D

  7  6  0  0  0  0  0  0  0  0  1 V2000
 -107.6620   59.2300   31.2320 C   0  0  0  0  0
 -107.9700   58.2000   30.6470 O   0  0  0  0  0
 -106.9160   60.1600   30.7520 O   0  0  0  0  0
 -108.1530   59.5260   32.6560 C   0  0  0  0  0
 -107.7785   60.5035   33.0329 H   0  0  0  0  0
 -107.8103   58.7370   33.3614 H   0  0  0  0  0
 -109.2646   59.5529   32.6903 H   0  0  0  0  0
  1  2  2  0  0  0
  1  3  2  0  0  0
  1  4  1  0  0  0
  4  5  1  0  0  0
  4  6  1  0  0  0
  4  7  1  0  0  0
M  END
$$$$
