@<TRIPOS>MOLECULE
ACY_3_B_408
 7 6 0 0 0
SMALL
NO_CHARGES

@<TRIPOS>ATOM
      1 C        -113.7890   17.7690   36.4740 C.2    408  ACY408      0.0000
      2 O        -113.0590   17.7520   35.4930 O.co2  408  ACY408     -0.5000
      3 OXT      -113.5620   18.4260   37.5540 O.co2  408  ACY408     -0.5000
      4 CH3      -115.1040   16.9760   36.5140 C.3    408  ACY408      0.0000
      5 H        -115.6412   17.1046   37.4796 H      408  ACY408      0.0000
      6 H        -114.9110   15.8891   36.3752 H      408  ACY408      0.0000
      7 H        -115.7861   17.3063   35.6995 H      408  ACY408      0.0000
@<TRIPOS>BOND
     1     1     2   ar
     2     1     3   ar
     3     1     4    1
     4     4     5    1
     5     4     6    1
     6     4     7    1

