@<TRIPOS>MOLECULE
ACY_2_B_407
 7 6 0 0 0
SMALL
NO_CHARGES

@<TRIPOS>ATOM
      1 C         -45.4140   63.6230   31.2320 C.2    407  ACY407      0.0000
      2 O         -46.1510   64.4040   30.6470 O.co2  407  ACY407     -0.5000
      3 OXT       -44.9800   62.5120   30.7520 O.co2  407  ACY407     -0.5000
      4 CH3       -44.9120   63.9000   32.6560 C.3    407  ACY407      0.0000
      5 H         -44.2531   63.0866   33.0330 H      407  ACY407      0.0000
      6 H         -45.7666   63.9982   33.3614 H      407  ACY407      0.0000
      7 H         -44.3324   64.8489   32.6903 H      407  ACY407      0.0000
@<TRIPOS>BOND
     1     1     2   ar
     2     1     3   ar
     3     1     4    1
     4     4     5    1
     5     4     6    1
     6     4     7    1

