@<TRIPOS>MOLECULE
ACY_3_A_406
 7 6 0 0 0
SMALL
NO_CHARGES

@<TRIPOS>ATOM
      1 C         -84.6870   52.6110  -29.5330 C.2    406  ACY406      0.0000
      2 O         -85.2020   52.3790  -30.6180 O.co2  406  ACY406     -0.5000
      3 OXT       -85.0830   53.5060  -28.7010 O.co2  406  ACY406     -0.5000
      4 CH3       -83.4670   51.8260  -29.0380 C.3    406  ACY406      0.0000
      5 H         -83.1288   52.1658  -28.0338 H      406  ACY406      0.0000
      6 H         -82.6130   51.9437  -29.7409 H      406  ACY406      0.0000
      7 H         -83.7008   50.7408  -28.9674 H      406  ACY406      0.0000
@<TRIPOS>BOND
     1     1     2   ar
     2     1     3   ar
     3     1     4    1
     4     4     5    1
     5     4     6    1
     6     4     7    1

