@<TRIPOS>MOLECULE
ACY_2_B_408
 7 6 0 0 0
SMALL
NO_CHARGES

@<TRIPOS>ATOM
      1 C         -78.2560   89.6600   36.4740 C.2    408  ACY408      0.0000
      2 O         -78.6360   89.0360   35.4930 O.co2  408  ACY408     -0.5000
      3 OXT       -77.8000   89.1350   37.5540 O.co2  408  ACY408     -0.5000
      4 CH3       -78.2850   91.1950   36.5140 C.3    408  ACY408      0.0000
      5 H         -77.9048   91.5959   37.4795 H      408  ACY408      0.0000
      6 H         -79.3227   91.5714   36.3754 H      408  ACY408      0.0000
      7 H         -77.6580   91.6205   35.6994 H      408  ACY408      0.0000
@<TRIPOS>BOND
     1     1     2   ar
     2     1     3   ar
     3     1     4    1
     4     4     5    1
     5     4     6    1
     6     4     7    1

