ACY_3_A_406
  -ISIS-            3D

  7  6  0  0  0  0  0  0  0  0  1 V2000
  -84.6870   52.6110  -29.5330 C   0  0  0  0  0
  -85.2020   52.3790  -30.6180 O   0  0  0  0  0
  -85.0830   53.5060  -28.7010 O   0  0  0  0  0
  -83.4670   51.8260  -29.0380 C   0  0  0  0  0
  -83.1288   52.1658  -28.0338 H   0  0  0  0  0
  -82.6130   51.9437  -29.7409 H   0  0  0  0  0
  -83.7008   50.7408  -28.9674 H   0  0  0  0  0
  1  2  2  0  0  0
  1  3  2  0  0  0
  1  4  1  0  0  0
  4  5  1  0  0  0
  4  6  1  0  0  0
  4  7  1  0  0  0
M  END
$$$$
