@<TRIPOS>MOLECULE
ACY_1_B_407
 7 6 0 0 0
SMALL
NO_CHARGES

@<TRIPOS>ATOM
      1 C         -72.7330    7.5180   31.2320 C.2    407  ACY407      0.0000
      2 O         -71.6880    7.7660   30.6470 O.co2  407  ACY407     -0.5000
      3 OXT       -73.9120    7.6980   30.7520 O.co2  407  ACY407     -0.5000
      4 CH3       -72.7440    6.9450   32.6560 C.3    407  ACY407      0.0000
      5 H         -73.7778    6.7808   33.0330 H      407  ACY407      0.0000
      6 H         -72.2319    7.6363   33.3613 H      407  ACY407      0.0000
      7 H         -72.2117    5.9688   32.6904 H      407  ACY407      0.0000
@<TRIPOS>BOND
     1     1     2   ar
     2     1     3   ar
     3     1     4    1
     4     4     5    1
     5     4     6    1
     6     4     7    1

