@<TRIPOS>MOLECULE
ACY_1_A_406
 7 6 0 0 0
SMALL
NO_CHARGES

@<TRIPOS>ATOM
      1 C         -78.4890   30.7240  -29.5330 C.2    406  ACY406      0.0000
      2 O         -78.0300   30.3940  -30.6180 O.co2  406  ACY406     -0.5000
      3 OXT       -79.0660   29.9340  -28.7010 O.co2  406  ACY406     -0.5000
      4 CH3       -78.4190   32.1730  -29.0380 C.3    406  ACY406      0.0000
      5 H         -78.8829   32.2962  -28.0340 H      406  ACY406      0.0000
      6 H         -78.9473   32.8539  -29.7412 H      406  ACY406      0.0000
      7 H         -77.3623   32.5128  -28.9670 H      406  ACY406      0.0000
@<TRIPOS>BOND
     1     1     2   ar
     2     1     3   ar
     3     1     4    1
     4     4     5    1
     5     4     6    1
     6     4     7    1

