@<TRIPOS>MOLECULE
DMS_1_A_403
 10 9 0 0 0
SMALL
NO_CHARGES

@<TRIPOS>ATOM
      1 S           2.4470  -18.8490    8.0280 S.o    403  DMS403      0.0000
      2 O           3.7340  -18.8640    8.9180 O.2    403  DMS403      0.0000
      3 C1          1.1460  -18.2390    9.0830 C.3    403  DMS403      0.0000
      4 C2          1.9180  -20.5260    8.0330 C.3    403  DMS403      0.0000
      5 H           0.1631  -18.3741    8.5871 H      403  DMS403      0.0000
      6 H           1.3058  -17.1575    9.2699 H      403  DMS403      0.0000
      7 H           1.1489  -18.7755   10.0541 H      403  DMS403      0.0000
      8 H           0.9117  -20.6078    7.5738 H      403  DMS403      0.0000
      9 H           1.8842  -20.9234    9.0684 H      403  DMS403      0.0000
     10 H           2.6287  -21.1364    7.4391 H      403  DMS403      0.0000
@<TRIPOS>BOND
     1     1     2    2
     2     1     3    1
     3     1     4    1
     4     3     5    1
     5     3     6    1
     6     3     7    1
     7     4     8    1
     8     4     9    1
     9     4    10    1

