DMS_1_A_402
  -ISIS-            3D

 10  9  0  0  0  0  0  0  0  0  1 V2000
    6.1830   -1.0390   -6.2980 S   0  0  0  0  0
    7.2010   -0.8600   -7.3620 O   0  0  0  0  0
    7.0420   -0.9280   -4.7180 C   0  0  0  0  0
    5.7960   -2.7670   -6.2290 C   0  0  0  0  0
    6.3442   -1.1814   -3.8937 H   0  0  0  0  0
    7.4079    0.1092   -4.5744 H   0  0  0  0  0
    7.9059   -1.6234   -4.7015 H   0  0  0  0  0
    5.1335   -2.9705   -5.3627 H   0  0  0  0  0
    6.7237   -3.3673   -6.1340 H   0  0  0  0  0
    5.2690   -3.0622   -7.1594 H   0  0  0  0  0
  1  2  2  0  0  0
  1  3  1  0  0  0
  1  4  1  0  0  0
  3  5  1  0  0  0
  3  6  1  0  0  0
  3  7  1  0  0  0
  4  8  1  0  0  0
  4  9  1  0  0  0
  4 10  1  0  0  0
M  END
$$$$
