@<TRIPOS>MOLECULE
R30_1_A_401
 51 54 0 0 0
SMALL
NO_CHARGES

@<TRIPOS>ATOM
      1 O01        35.1220  -20.1950   36.0920 O.2    401  R30401      0.0000
      2 C02        36.0310  -19.6100   36.7490 C.2    401  R30401      0.0000
      3 N03        37.3290  -19.8310   36.4120 N.am   401  R30401      0.0000
      4 C04        38.4120  -19.2040   37.1170 C.ar   401  R30401      0.0000
      5 C05        38.9650  -18.0060   36.6400 C.ar   401  R30401      0.0000
      6 C06        40.0740  -17.3380   37.2400 C.ar   401  R30401      0.0000
      7 C07        40.6850  -17.8120   38.3980 C.ar   401  R30401      0.0000
      8 N08        41.8150  -17.1460   39.0360 N.am   401  R30401      0.0000
      9 C09        42.1520  -15.7920   38.9550 C.2    401  R30401      0.0000
     10 C10        43.3640  -15.0950   39.6100 C.3    401  R30401      0.0000
     11 C11        43.0920  -13.9230   40.5440 C.3    401  R30401      0.0000
     12 O12        41.4100  -15.0440   38.2910 O.2    401  R30401      0.0000
     13 C13        40.1350  -19.0090   38.8990 C.ar   401  R30401      0.0000
     14 C14        39.0250  -19.6760   38.2890 C.ar   401  R30401      0.0000
     15 C15        37.7100  -20.8150   35.3750 C.3    401  R30401      0.0000
     16 C16        38.7430  -21.8210   35.9020 C.ar   401  R30401      0.0000
     17 C17        40.0680  -21.5890   35.8020 C.ar   401  R30401      0.0000
     18 S18        41.0200  -22.7930   36.5390 S.3    401  R30401      0.0000
     19 C19        39.6420  -23.6560   37.0530 C.ar   401  R30401      0.0000
     20 C20        38.5230  -23.0080   36.6500 C.ar   401  R30401      0.0000
     21 C21        35.5800  -18.6610   37.9230 C.2    401  R30401      0.0000
     22 N22        34.2350  -18.2840   38.0440 N.ar   401  R30401      0.0000
     23 N23        33.3480  -18.9770   38.8340 N.ar   401  R30401      0.0000
     24 N24        32.1930  -18.4870   38.7590 N.ar   401  R30401      0.0000
     25 C25        32.2460  -17.3510   37.8330 C.ar   401  R30401      0.0000
     26 C26        33.5730  -17.2690   37.3990 C.ar   401  R30401      0.0000
     27 C27        33.9850  -16.2630   36.4860 C.ar   401  R30401      0.0000
     28 C28        33.0580  -15.3540   36.0150 C.ar   401  R30401      0.0000
     29 C29        31.6950  -15.4450   36.4500 C.ar   401  R30401      0.0000
     30 C30        31.2980  -16.4470   37.3570 C.ar   401  R30401      0.0000
     31 H          38.5277  -17.5578   35.7309 H      401  R30401      0.0000
     32 H          40.4426  -16.4205   36.7568 H      401  R30401      0.0000
     33 H          42.3774  -17.7925   39.6039 H      401  R30401      0.0000
     34 H          44.0421  -14.7508   38.7944 H      401  R30401      0.0000
     35 H          43.9403  -15.8647   40.1740 H      401  R30401      0.0000
     36 H          44.0357  -13.5039   40.9601 H      401  R30401      0.0000
     37 H          42.4562  -14.2307   41.4042 H      401  R30401      0.0000
     38 H          42.5646  -13.0955   40.0190 H      401  R30401      0.0000
     39 H          40.5699  -19.4563   39.8091 H      401  R30401      0.0000
     40 H          38.6468  -20.6046   38.7488 H      401  R30401      0.0000
     41 H          38.1378  -20.2926   34.4890 H      401  R30401      0.0000
     42 H          36.8365  -21.3892   34.9945 H      401  R30401      0.0000
     43 H          40.5183  -20.7155   35.3063 H      401  R30401      0.0000
     44 H          39.6734  -24.5906   37.6311 H      401  R30401      0.0000
     45 H          37.5091  -23.3680   36.8850 H      401  R30401      0.0000
     46 H          35.0356  -16.2102   36.1578 H      401  R30401      0.0000
     47 H          33.3584  -14.5638   35.3067 H      401  R30401      0.0000
     48 H          30.9526  -14.7229   36.0703 H      401  R30401      0.0000
     49 H          30.2500  -16.5173   37.6908 H      401  R30401      0.0000
     50 H          36.2379  -17.8003   37.6834 H      401  R30401      0.0000
     51 H          35.9195  -19.2600   38.7937 H      401  R30401      0.0000
@<TRIPOS>BOND
     1     1     2    2
     2     2     3    1
     3     2    21    1
     4     3     4    1
     5     3    15    1
     6     4     5   ar
     7     4    14   ar
     8     5     6   ar
     9     5    31    1
    10     6     7   ar
    11     6    32    1
    12     7     8    1
    13     7    13   ar
    14     8     9    1
    15     8    33    1
    16     9    10    1
    17     9    12    2
    18    10    11    1
    19    10    34    1
    20    10    35    1
    21    11    36    1
    22    11    37    1
    23    11    38    1
    24    13    14   ar
    25    13    39    1
    26    14    40    1
    27    15    16    1
    28    15    41    1
    29    15    42    1
    30    16    17   ar
    31    16    20   ar
    32    17    18   ar
    33    17    43    1
    34    18    19   ar
    35    19    20   ar
    36    19    44    1
    37    20    45    1
    38    21    22    1
    39    21    50    1
    40    21    51    1
    41    22    23   ar
    42    22    26   ar
    43    23    24   ar
    44    24    25   ar
    45    25    26   ar
    46    25    30   ar
    47    26    27   ar
    48    27    28   ar
    49    27    46    1
    50    28    29   ar
    51    28    47    1
    52    29    30   ar
    53    29    48    1
    54    30    49    1

