@<TRIPOS>MOLECULE
R30_1_B_401
 51 54 0 0 0
SMALL
NO_CHARGES

@<TRIPOS>ATOM
      1 O01        -5.6350  -14.4130   56.3790 O.2    401  R30401      0.0000
      2 C02        -5.6300  -14.9390   57.5270 C.2    401  R30401      0.0000
      3 N03        -6.7040  -14.7290   58.3770 N.am   401  R30401      0.0000
      4 C04        -6.7730  -15.2840   59.7470 C.ar   401  R30401      0.0000
      5 C05        -7.5920  -16.3850   60.0570 C.ar   401  R30401      0.0000
      6 C06        -7.7180  -16.9640   61.3460 C.ar   401  R30401      0.0000
      7 C07        -7.0000  -16.4670   62.4650 C.ar   401  R30401      0.0000
      8 N08        -7.1190  -17.0430   63.8070 N.am   401  R30401      0.0000
      9 C09        -7.2280  -18.4130   64.1420 C.2    401  R30401      0.0000
     10 C10        -7.3880  -19.0240   65.5800 C.3    401  R30401      0.0000
     11 C11        -7.9440  -18.1430   66.6930 C.3    401  R30401      0.0000
     12 O12        -7.1990  -19.2400   63.2100 O.2    401  R30401      0.0000
     13 C13        -6.1860  -15.3650   62.1740 C.ar   401  R30401      0.0000
     14 C14        -6.0750  -14.7920   60.8640 C.ar   401  R30401      0.0000
     15 C15        -7.8370  -13.7820   57.9710 C.3    401  R30401      0.0000
     16 C16        -7.9040  -12.6280   58.9310 C.ar   401  R30401      0.0000
     17 C17        -8.5770  -12.7200   60.0790 C.ar   401  R30401      0.0000
     18 S18        -8.4330  -11.3540   61.0690 S.3    401  R30401      0.0000
     19 C19        -7.3900  -10.6160   59.9630 C.ar   401  R30401      0.0000
     20 C20        -7.1960  -11.4190   58.9000 C.ar   401  R30401      0.0000
     21 C21        -4.3950  -15.7980   57.8370 C.3    401  R30401      0.0000
     22 N22        -3.5060  -16.2040   56.7830 N.ar   401  R30401      0.0000
     23 N23        -2.3640  -15.4800   56.4530 N.ar   401  R30401      0.0000
     24 N24        -1.7480  -16.0060   55.4770 N.ar   401  R30401      0.0000
     25 C25        -2.4570  -17.1920   55.0720 C.ar   401  R30401      0.0000
     26 C26        -3.5690  -17.2920   55.9200 C.ar   401  R30401      0.0000
     27 C27        -4.4790  -18.3650   55.7830 C.ar   401  R30401      0.0000
     28 C28        -4.2710  -19.3280   54.7960 C.ar   401  R30401      0.0000
     29 C29        -3.1400  -19.2150   53.9420 C.ar   401  R30401      0.0000
     30 C30        -2.2420  -18.1480   54.0890 C.ar   401  R30401      0.0000
     31 H          -8.1806  -16.8325   59.2375 H      401  R30401      0.0000
     32 H          -8.3942  -17.8240   61.4795 H      401  R30401      0.0000
     33 H          -7.0907  -16.3212   64.5381 H      401  R30401      0.0000
     34 H          -6.3821  -19.3872   65.8968 H      401  R30401      0.0000
     35 H          -8.0284  -19.9337   65.5005 H      401  R30401      0.0000
     36 H          -8.0309  -18.7017   67.6520 H      401  R30401      0.0000
     37 H          -8.9573  -17.7599   66.4373 H      401  R30401      0.0000
     38 H          -7.2908  -17.2619   66.8811 H      401  R30401      0.0000
     39 H          -5.5970  -14.9107   62.9889 H      401  R30401      0.0000
     40 H          -5.4114  -13.9217   60.7251 H      401  R30401      0.0000
     41 H          -8.8101  -14.3235   57.9655 H      401  R30401      0.0000
     42 H          -7.7024  -13.3837   56.9414 H      401  R30401      0.0000
     43 H          -9.1775  -13.5899   60.3871 H      401  R30401      0.0000
     44 H          -6.9325   -9.6268   60.1102 H      401  R30401      0.0000
     45 H          -6.5284  -11.1530   58.0654 H      401  R30401      0.0000
     46 H          -4.7545  -16.7358   58.3193 H      401  R30401      0.0000
     47 H          -3.7824  -15.2820   58.6107 H      401  R30401      0.0000
     48 H          -5.3507  -18.4366   56.4534 H      401  R30401      0.0000
     49 H          -4.9746  -20.1687   54.6772 H      401  R30401      0.0000
     50 H          -2.9693  -19.9731   53.1592 H      401  R30401      0.0000
     51 H          -1.3657  -18.0648   53.4255 H      401  R30401      0.0000
@<TRIPOS>BOND
     1     1     2    2
     2     2     3    1
     3     2    21    1
     4     3     4    1
     5     3    15    1
     6     4     5   ar
     7     4    14   ar
     8     5     6   ar
     9     5    31    1
    10     6     7   ar
    11     6    32    1
    12     7     8    1
    13     7    13   ar
    14     8     9    1
    15     8    33    1
    16     9    10    1
    17     9    12    2
    18    10    11    1
    19    10    34    1
    20    10    35    1
    21    11    36    1
    22    11    37    1
    23    11    38    1
    24    13    14   ar
    25    13    39    1
    26    14    40    1
    27    15    16    1
    28    15    41    1
    29    15    42    1
    30    16    17   ar
    31    16    20   ar
    32    17    18   ar
    33    17    43    1
    34    18    19   ar
    35    19    20   ar
    36    19    44    1
    37    20    45    1
    38    21    22    1
    39    21    46    1
    40    21    47    1
    41    22    23   ar
    42    22    26   ar
    43    23    24   ar
    44    24    25   ar
    45    25    26   ar
    46    25    30   ar
    47    26    27   ar
    48    27    28   ar
    49    27    48    1
    50    28    29   ar
    51    28    49    1
    52    29    30   ar
    53    29    50    1
    54    30    51    1

