DMS_1_A_402
  -ISIS-            3D

 10  9  0  0  0  0  0  0  0  0  1 V2000
   -0.9570    9.4730   -7.9490 S   0  0  0  0  0
    0.1570    8.6030   -7.6100 O   0  0  0  0  0
   -2.2210    8.6400   -7.1030 C   0  0  0  0  0
   -0.6250   10.7030   -6.7630 C   0  0  0  0  0
   -3.1052    9.3024   -7.0011 H   0  0  0  0  0
   -1.8909    8.3205   -6.0929 H   0  0  0  0  0
   -2.5225    7.7416   -7.6804 H   0  0  0  0  0
   -1.5052   11.3705   -6.6592 H   0  0  0  0  0
    0.2387   11.3149   -7.0956 H   0  0  0  0  0
   -0.3899   10.2606   -5.7726 H   0  0  0  0  0
  1  2  2  0  0  0
  1  3  1  0  0  0
  1  4  1  0  0  0
  3  5  1  0  0  0
  3  6  1  0  0  0
  3  7  1  0  0  0
  4  8  1  0  0  0
  4  9  1  0  0  0
  4 10  1  0  0  0
M  END
$$$$
