@<TRIPOS>MOLECULE
DMS_1_A_402
 10 9 0 0 0
SMALL
NO_CHARGES

@<TRIPOS>ATOM
      1 S          -0.9570    9.4730   -7.9490 S.o    402  DMS402      0.0000
      2 O           0.1570    8.6030   -7.6100 O.2    402  DMS402      0.0000
      3 C1         -2.2210    8.6400   -7.1030 C.3    402  DMS402      0.0000
      4 C2         -0.6250   10.7030   -6.7630 C.3    402  DMS402      0.0000
      5 H          -3.1052    9.3024   -7.0011 H      402  DMS402      0.0000
      6 H          -1.8909    8.3205   -6.0929 H      402  DMS402      0.0000
      7 H          -2.5225    7.7416   -7.6804 H      402  DMS402      0.0000
      8 H          -1.5052   11.3705   -6.6592 H      402  DMS402      0.0000
      9 H           0.2387   11.3149   -7.0956 H      402  DMS402      0.0000
     10 H          -0.3899   10.2606   -5.7726 H      402  DMS402      0.0000
@<TRIPOS>BOND
     1     1     2    2
     2     1     3    1
     3     1     4    1
     4     3     5    1
     5     3     6    1
     6     3     7    1
     7     4     8    1
     8     4     9    1
     9     4    10    1

