@<TRIPOS>MOLECULE
DMS_1_A_401
 10 9 0 0 0
SMALL
NO_CHARGES

@<TRIPOS>ATOM
      1 S           6.9180  -28.0610   21.4960 S.o    401  DMS401      0.0000
      2 O           7.8330  -27.1940   22.2730 O.2    401  DMS401      0.0000
      3 C1          5.7260  -28.7160   22.6450 C.3    401  DMS401      0.0000
      4 C2          5.8610  -26.9740   20.5940 C.3    401  DMS401      0.0000
      5 H           4.9360  -29.2656   22.0935 H      401  DMS401      0.0000
      6 H           5.2648  -27.8950   23.2315 H      401  DMS401      0.0000
      7 H           6.2330  -29.4168   23.3395 H      401  DMS401      0.0000
      8 H           5.0655  -27.5575   20.0870 H      401  DMS401      0.0000
      9 H           6.4543  -26.4365   19.8262 H      401  DMS401      0.0000
     10 H           5.3961  -26.2323   21.2755 H      401  DMS401      0.0000
@<TRIPOS>BOND
     1     1     2    2
     2     1     3    1
     3     1     4    1
     4     3     5    1
     5     3     6    1
     6     3     7    1
     7     4     8    1
     8     4     9    1
     9     4    10    1

