DMS_1_A_402
  -ISIS-            3D

 10  9  0  0  0  0  0  0  0  0  1 V2000
    6.1970   -1.0580   -6.2800 S   0  0  0  0  0
    7.0930   -0.8760   -7.4350 O   0  0  0  0  0
    7.1930   -0.8290   -4.8110 C   0  0  0  0  0
    5.9070   -2.7850   -6.1070 C   0  0  0  0  0
    6.5952   -1.0755   -3.9098 H   0  0  0  0  0
    7.5155    0.2305   -4.7493 H   0  0  0  0  0
    8.0910   -1.4793   -4.8497 H   0  0  0  0  0
    5.3413   -2.9814   -5.1734 H   0  0  0  0  0
    6.8680   -3.3386   -6.0789 H   0  0  0  0  0
    5.3091   -3.1460   -6.9687 H   0  0  0  0  0
  1  2  2  0  0  0
  1  3  1  0  0  0
  1  4  1  0  0  0
  3  5  1  0  0  0
  3  6  1  0  0  0
  3  7  1  0  0  0
  4  8  1  0  0  0
  4  9  1  0  0  0
  4 10  1  0  0  0
M  END
$$$$
