@<TRIPOS>MOLECULE
DMS_2_A_402
 10 9 0 0 0
SMALL
NO_CHARGES

@<TRIPOS>ATOM
      1 S         -20.4250  -16.8920   -5.5550 S.o    402  DMS402      0.0000
      2 O         -20.8620  -18.0470   -4.7120 O.2    402  DMS402      0.0000
      3 C1        -21.7920  -15.7100   -5.7250 C.3    402  DMS402      0.0000
      4 C2        -20.2450  -17.4370   -7.2750 C.3    402  DMS402      0.0000
      5 H         -21.4881  -14.8867   -6.4032 H      402  DMS402      0.0000
      6 H         -22.0385  -15.2905   -4.7282 H      402  DMS402      0.0000
      7 H         -22.6839  -16.2237   -6.1387 H      402  DMS402      0.0000
      8 H         -19.9820  -16.5690   -7.9135 H      402  DMS402      0.0000
      9 H         -21.1959  -17.8853   -7.6290 H      402  DMS402      0.0000
     10 H         -19.4365  -18.1939   -7.3360 H      402  DMS402      0.0000
@<TRIPOS>BOND
     1     1     2    2
     2     1     3    1
     3     1     4    1
     4     3     5    1
     5     3     6    1
     6     3     7    1
     7     4     8    1
     8     4     9    1
     9     4    10    1

