DMS_2_A_403
  -ISIS-            3D

 10  9  0  0  0  0  0  0  0  0  1 V2000
   -2.1360  -18.7820   -8.6620 S   0  0  0  0  0
   -1.8400  -19.8970   -7.7100 O   0  0  0  0  0
   -3.6560  -19.1570   -9.5790 C   0  0  0  0  0
   -0.9370  -18.8110  -10.0230 C   0  0  0  0  0
   -3.8408  -18.3635  -10.3317 H   0  0  0  0  0
   -4.5092  -19.1945   -8.8712 H   0  0  0  0  0
   -3.5570  -20.1380  -10.0875 H   0  0  0  0  0
   -1.1966  -18.0268  -10.7632 H   0  0  0  0  0
   -0.9480  -19.8058  -10.5138 H   0  0  0  0  0
    0.0770  -18.6113   -9.6202 H   0  0  0  0  0
  1  2  2  0  0  0
  1  3  1  0  0  0
  1  4  1  0  0  0
  3  5  1  0  0  0
  3  6  1  0  0  0
  3  7  1  0  0  0
  4  8  1  0  0  0
  4  9  1  0  0  0
  4 10  1  0  0  0
M  END
$$$$
