@<TRIPOS>MOLECULE
DMS_2_A_403
 10 9 0 0 0
SMALL
NO_CHARGES

@<TRIPOS>ATOM
      1 S          -2.1360  -18.7820   -8.6620 S.o    403  DMS403      0.0000
      2 O          -1.8400  -19.8970   -7.7100 O.2    403  DMS403      0.0000
      3 C1         -3.6560  -19.1570   -9.5790 C.3    403  DMS403      0.0000
      4 C2         -0.9370  -18.8110  -10.0230 C.3    403  DMS403      0.0000
      5 H          -3.8408  -18.3635  -10.3317 H      403  DMS403      0.0000
      6 H          -4.5092  -19.1945   -8.8712 H      403  DMS403      0.0000
      7 H          -3.5570  -20.1380  -10.0875 H      403  DMS403      0.0000
      8 H          -1.1966  -18.0268  -10.7632 H      403  DMS403      0.0000
      9 H          -0.9480  -19.8058  -10.5138 H      403  DMS403      0.0000
     10 H           0.0770  -18.6113   -9.6202 H      403  DMS403      0.0000
@<TRIPOS>BOND
     1     1     2    2
     2     1     3    1
     3     1     4    1
     4     3     5    1
     5     3     6    1
     6     3     7    1
     7     4     8    1
     8     4     9    1
     9     4    10    1

