@<TRIPOS>MOLECULE
IMD_2_A_404
 9 9 0 0 0
SMALL
NO_CHARGES

@<TRIPOS>ATOM
      1 N1         -7.3850  -21.7990  -29.5640 N.ar   404  IMD404      0.0000
      2 C2         -8.2640  -21.8940  -30.5850 C.ar   404  IMD404      0.0000
      3 N3         -8.5640  -20.6500  -31.0160 N.ar   404  IMD404      0.0000
      4 C4         -7.8790  -19.7660  -30.2650 C.ar   404  IMD404      0.0000
      5 C5         -7.1320  -20.4920  -29.3480 C.ar   404  IMD404      0.0000
      6 H          -6.9809  -22.5871  -29.0433 H      404  IMD404      0.0000
      7 H          -8.7149  -22.7758  -31.0580 H      404  IMD404      0.0000
      8 H          -7.9790  -18.6897  -30.4466 H      404  IMD404      0.0000
      9 H          -6.4544  -20.0899  -28.5805 H      404  IMD404      0.0000
@<TRIPOS>BOND
     1     1     2   ar
     2     1     5   ar
     3     1     6    1
     4     2     3   ar
     5     2     7    1
     6     3     4   ar
     7     4     5   ar
     8     4     8    1
     9     5     9    1

