IMD_2_A_404
  -ISIS-            3D

  9  9  0  0  0  0  0  0  0  0  1 V2000
   -7.3850  -21.7990  -29.5640 N   0  0  0  0  0
   -8.2640  -21.8940  -30.5850 C   0  0  0  0  0
   -8.5640  -20.6500  -31.0160 N   0  0  0  0  0
   -7.8790  -19.7660  -30.2650 C   0  0  0  0  0
   -7.1320  -20.4920  -29.3480 C   0  0  0  0  0
   -6.9809  -22.5871  -29.0433 H   0  0  0  0  0
   -8.7149  -22.7758  -31.0580 H   0  0  0  0  0
   -7.9790  -18.6897  -30.4466 H   0  0  0  0  0
   -6.4544  -20.0899  -28.5805 H   0  0  0  0  0
  1  2  2  0  0  0
  1  5  1  0  0  0
  1  6  1  0  0  0
  2  3  1  0  0  0
  2  7  1  0  0  0
  3  4  1  0  0  0
  4  5  1  0  0  0
  4  8  1  0  0  0
  5  9  1  0  0  0
M  END
$$$$
