@<TRIPOS>MOLECULE
07L_1_A_201
 20 21 0 0 0
SMALL
NO_CHARGES

@<TRIPOS>ATOM
      1 O11       -53.9470  -29.1070    6.2680 O.2    201  07L201      0.0000
      2 C9        -52.7610  -29.1520    6.2060 C.2    201  07L201      0.0000
      3 C8        -52.0050  -29.2440    7.4840 C.3    201  07L201      0.0000
      4 C7        -50.5750  -29.0070    7.4470 C.3    201  07L201      0.0000
      5 C2        -49.8400  -29.0510    6.1240 C.ar   201  07L201      0.0000
      6 O10       -52.0420  -29.1150    4.9540 O.3    201  07L201      0.0000
      7 C3        -50.5800  -29.1050    4.9180 C.ar   201  07L201      0.0000
      8 C4        -49.9070  -29.1460    3.7100 C.ar   201  07L201      0.0000
      9 C5        -48.5210  -29.1420    3.6680 C.ar   201  07L201      0.0000
     10 O12       -47.9060  -29.2050    2.4130 O.3    201  07L201      0.0000
     11 C6        -47.7680  -29.0820    4.8520 C.ar   201  07L201      0.0000
     12 C1        -48.4330  -29.0400    6.0880 C.ar   201  07L201      0.0000
     13 H         -52.1739  -30.2792    7.8632 H      201  07L201      0.0000
     14 H         -52.4808  -28.5872    8.2476 H      201  07L201      0.0000
     15 H         -50.0679  -29.7069    8.1521 H      201  07L201      0.0000
     16 H         -50.3832  -27.9897    7.8650 H      201  07L201      0.0000
     17 H         -50.4976  -29.1874    2.7791 H      201  07L201      0.0000
     18 H         -48.5195  -29.2440    1.6935 H      201  07L201      0.0000
     19 H         -46.6665  -29.0739    4.8069 H      201  07L201      0.0000
     20 H         -47.8492  -28.9974    7.0228 H      201  07L201      0.0000
@<TRIPOS>BOND
     1     1     2    2
     2     2     3    1
     3     2     6    1
     4     3     4    1
     5     3    13    1
     6     3    14    1
     7     4     5    1
     8     4    15    1
     9     4    16    1
    10     5     7   ar
    11     5    12   ar
    12     6     7    1
    13     7     8   ar
    14     8     9   ar
    15     8    17    1
    16     9    10    1
    17     9    11   ar
    18    10    18    1
    19    11    12   ar
    20    11    19    1
    21    12    20    1

