@<TRIPOS>MOLECULE
DMS_1_A_901
 10 9 0 0 0
SMALL
NO_CHARGES

@<TRIPOS>ATOM
      1 S          -4.3500    6.2440   -0.1040 S.o    901  DMS901      0.0000
      2 O          -3.1210    5.4630    0.1970 O.2    901  DMS901      0.0000
      3 C1         -4.4230    7.5520    1.0830 C.3    901  DMS901      0.0000
      4 C2         -5.7160    5.3100    0.5430 C.3    901  DMS901      0.0000
      5 H          -5.3919    8.0853    0.9995 H      901  DMS901      0.0000
      6 H          -3.6026    8.2719    0.8856 H      901  DMS901      0.0000
      7 H          -4.3089    7.1513    2.1112 H      901  DMS901      0.0000
      8 H          -6.6482    5.9071    0.4747 H      901  DMS901      0.0000
      9 H          -5.5304    5.0328    1.6011 H      901  DMS901      0.0000
     10 H          -5.8413    4.3839   -0.0545 H      901  DMS901      0.0000
@<TRIPOS>BOND
     1     1     2    2
     2     1     3    1
     3     1     4    1
     4     3     5    1
     5     3     6    1
     6     3     7    1
     7     4     8    1
     8     4     9    1
     9     4    10    1

