@<TRIPOS>MOLECULE
L46_1_A_201
 31 31 0 0 0
SMALL
NO_CHARGES

@<TRIPOS>ATOM
      1 C4         -6.2900   15.0970    1.0170 C.ar   201  L46201      0.0000
      2 C3         -7.5450   15.2020    1.6790 C.ar   201  L46201      0.0000
      3 C7         -7.2650   15.2810    3.0560 C.ar   201  L46201      0.0000
      4 C5         -5.2890   15.1860    1.9740 C.ar   201  L46201      0.0000
      5 C27        -6.0110   15.0110   -0.4120 C.2    201  L46201      0.0000
      6 C8         -8.1110   15.4670    4.2440 C.2    201  L46201      0.0000
      7 C26        -3.8010   15.2190    1.8430 C.3    201  L46201      0.0000
      8 C29        -4.6650   14.5280   -0.8590 C.3    201  L46201      0.0000
      9 C1         -9.7430   16.3640    1.2020 C.3    201  L46201      0.0000
     10 C2         -8.9130   15.0950    1.0600 C.3    201  L46201      0.0000
     11 N6         -5.8790   15.3220    3.1760 N.ar   201  L46201      0.0000
     12 N10        -7.5850   15.1800    5.4280 N.am   201  L46201      0.0000
     13 O28        -6.8250   15.4480   -1.2380 O.2    201  L46201      0.0000
     14 O9         -9.2480   15.9370    4.1540 O.2    201  L46201      0.0000
     15 C6         -8.3330   15.3560    6.6560 C.3    201  L46201      0.0000
     16 H          -3.3226   15.4909    2.8096 H      201  L46201      0.0000
     17 H          -3.4637   15.9855    1.1133 H      201  L46201      0.0000
     18 H          -3.3807   14.2304    1.5601 H      201  L46201      0.0000
     19 H          -4.7260   14.1742   -1.9124 H      201  L46201      0.0000
     20 H          -4.3122   13.6577   -0.2663 H      201  L46201      0.0000
     21 H          -3.9042   15.3369   -0.8473 H      201  L46201      0.0000
     22 H         -10.7161   16.2632    0.6706 H      201  L46201      0.0000
     23 H          -9.2209   17.2377    0.7510 H      201  L46201      0.0000
     24 H          -9.9865   16.6359    2.2458 H      201  L46201      0.0000
     25 H          -9.4541   14.2496    1.5440 H      201  L46201      0.0000
     26 H          -8.8307   14.8235   -0.0148 H      201  L46201      0.0000
     27 H          -5.1941   15.4679    4.2913 H      201  L46201      0.0000
     28 H          -6.6303   14.8078    5.4940 H      201  L46201      0.0000
     29 H          -7.7296   15.0592    7.5428 H      201  L46201      0.0000
     30 H          -9.2566   14.7350    6.6668 H      201  L46201      0.0000
     31 H          -8.6328   16.4173    6.8059 H      201  L46201      0.0000
@<TRIPOS>BOND
     1     1     2   ar
     2     1     4   ar
     3     1     5    1
     4     2     3   ar
     5     2    10    1
     6     3     6    1
     7     3    11   ar
     8     4     7    1
     9     4    11   ar
    10     5     8    1
    11     5    13    2
    12     6    12    1
    13     6    14    2
    14     7    16    1
    15     7    17    1
    16     7    18    1
    17     8    19    1
    18     8    20    1
    19     8    21    1
    20     9    10    1
    21     9    22    1
    22     9    23    1
    23     9    24    1
    24    10    25    1
    25    10    26    1
    26    11    27    1
    27    12    15    1
    28    12    28    1
    29    15    29    1
    30    15    30    1
    31    15    31    1

