@<TRIPOS>MOLECULE
APR_1_A_201
 58 61 0 0 0
SMALL
NO_CHARGES

@<TRIPOS>ATOM
      1 N1          6.0070   -8.6420  -16.0460 N.ar   201  APR201      0.0000
      2 C2          5.6550   -7.3730  -15.8100 C.ar   201  APR201      0.0000
      3 N3          5.6270   -6.3460  -16.6510 N.ar   201  APR201      0.0000
      4 C4          6.0360   -6.7190  -17.8750 C.ar   201  APR201      0.0000
      5 C5          6.4470   -7.9740  -18.2690 C.ar   201  APR201      0.0000
      6 C6          6.4360   -8.9850  -17.2880 C.ar   201  APR201      0.0000
      7 N6          6.7670  -10.2550  -17.5200 N.pl3  201  APR201      0.0000
      8 N7          6.7850   -7.9610  -19.6200 N.ar   201  APR201      0.0000
      9 C8          6.5700   -6.7240  -20.0110 C.ar   201  APR201      0.0000
     10 N9          6.1370   -5.9180  -18.9770 N.ar   201  APR201      0.0000
     11 C1'         5.7050   -4.5370  -19.0050 C.3    201  APR201      0.0000
     12 C2'         6.2060   -3.6570  -20.1420 C.3    201  APR201      0.0000
     13 O2'         7.4910   -3.1390  -19.8640 O.3    201  APR201      0.0000
     14 C3'         5.1060   -2.5920  -20.1920 C.3    201  APR201      0.0000
     15 O3'         5.3290   -1.5980  -19.2000 O.3    201  APR201      0.0000
     16 O4'         4.3030   -4.5740  -19.1400 O.3    201  APR201      0.0000
     17 C4'         3.8410   -3.3910  -19.8400 C.3    201  APR201      0.0000
     18 C5'         2.9800   -3.8350  -20.9990 C.3    201  APR201      0.0000
     19 O5'         3.8450   -4.2610  -22.0730 O.3    201  APR201      0.0000
     20 PA          3.3980   -5.3740  -23.1440 P.3    201  APR201      0.0000
     21 O1A         3.2480   -6.6850  -22.4570 O.co2  201  APR201      0.0000
     22 O2A         4.3270   -5.2940  -24.3070 O.co2  201  APR201      0.0000
     23 O3A         1.9430   -4.8750  -23.5770 O.3    201  APR201      0.0000
     24 PB          1.3520   -3.8440  -24.6430 P.3    201  APR201      0.0000
     25 O1B        -0.0890   -3.6240  -24.3370 O.co2  201  APR201      0.0000
     26 O2B         2.2610   -2.6730  -24.7420 O.co2  201  APR201      0.0000
     27 O5D         1.5160   -4.6730  -25.9960 O.3    201  APR201      0.0000
     28 C5D         0.5780   -5.7220  -26.3270 C.3    201  APR201      0.0000
     29 O4D         2.3630   -7.2190  -26.8470 O.3    201  APR201      0.0000
     30 O1D         2.8390   -9.2940  -25.9640 O.3    201  APR201      0.0000
     31 C1D         2.2560   -8.6240  -27.0190 C.3    201  APR201      0.0000
     32 O2D         0.3910  -10.1190  -27.7240 O.3    201  APR201      0.0000
     33 C2D         0.7510   -8.8890  -27.1300 C.3    201  APR201      0.0000
     34 O3D         0.4730   -7.8800  -29.3370 O.3    201  APR201      0.0000
     35 C3D         0.2780   -7.6910  -27.9400 C.3    201  APR201      0.0000
     36 C4D         1.1890   -6.5790  -27.4050 C.3    201  APR201      0.0000
     37 H           5.3282   -7.1541  -14.7789 H      201  APR201      0.0000
     38 H           6.6920   -6.3254  -21.0252 H      201  APR201      0.0000
     39 H           5.9590   -4.0560  -18.0350 H      201  APR201      0.0000
     40 H           6.2287   -4.2125  -21.1000 H      201  APR201      0.0000
     41 H           7.3679   -2.3451  -19.3552 H      201  APR201      0.0000
     42 H           5.0455   -2.1240  -21.1966 H      201  APR201      0.0000
     43 H           4.8311   -0.8239  -19.4252 H      201  APR201      0.0000
     44 H           3.2059   -2.7994  -19.1458 H      201  APR201      0.0000
     45 H           2.3579   -2.9885  -21.3581 H      201  APR201      0.0000
     46 H           2.2908   -4.6469  -20.6865 H      201  APR201      0.0000
     47 H          -0.3686   -5.2660  -26.6853 H      201  APR201      0.0000
     48 H           0.3423   -6.3349  -25.4318 H      201  APR201      0.0000
     49 H           3.7475   -9.0320  -25.9030 H      201  APR201      0.0000
     50 H           2.7501   -8.9131  -27.9696 H      201  APR201      0.0000
     51 H           0.7669  -10.8091  -27.1932 H      201  APR201      0.0000
     52 H           0.2998   -8.8303  -26.1154 H      201  APR201      0.0000
     53 H           0.2293   -8.7798  -29.5230 H      201  APR201      0.0000
     54 H          -0.7920   -7.4717  -27.7437 H      201  APR201      0.0000
     55 H           1.4965   -5.9242  -28.2485 H      201  APR201      0.0000
     56 H           7.0727  -10.4723  -18.4777 H      201  APR201      0.0000
     57 H           6.6846  -10.8945  -16.7198 H      201  APR201      0.0000
     58 H           2.9551   -7.4814  -23.2065 H      201  APR201      0.0000
@<TRIPOS>BOND
     1     1     2   ar
     2     1     6   ar
     3     2     3   ar
     4     2    37    1
     5     3     4   ar
     6     4     5   ar
     7     4    10   ar
     8     5     6   ar
     9     5     8   ar
    10     6     7    1
    11     7    56    1
    12     7    57    1
    13     8     9   ar
    14     9    10   ar
    15     9    38    1
    16    10    11    1
    17    11    12    1
    18    11    16    1
    19    11    39    1
    20    12    13    1
    21    12    14    1
    22    12    40    1
    23    13    41    1
    24    14    15    1
    25    14    17    1
    26    14    42    1
    27    15    43    1
    28    16    17    1
    29    17    18    1
    30    17    44    1
    31    18    19    1
    32    18    45    1
    33    18    46    1
    34    19    20    1
    35    20    21    1
    36    20    22    2
    37    20    23    1
    38    23    24    1
    39    24    25    2
    40    24    26    2
    41    24    27    1
    42    27    28    1
    43    28    36    1
    44    28    47    1
    45    28    48    1
    46    29    31    1
    47    29    36    1
    48    30    31    1
    49    30    49    1
    50    31    33    1
    51    31    50    1
    52    32    33    1
    53    32    51    1
    54    33    35    1
    55    33    52    1
    56    34    35    1
    57    34    53    1
    58    35    36    1
    59    35    54    1
    60    36    55    1
    61    21    58    1

