@<TRIPOS>MOLECULE
EDO_1_A_202
 10 9 0 0 0
SMALL
NO_CHARGES

@<TRIPOS>ATOM
      1 C1         10.6050  -11.6490  -29.9520 C.3    202  EDO202      0.0000
      2 O1         10.1320  -12.4530  -28.8680 O.3    202  EDO202      0.0000
      3 C2          9.8160  -10.3470  -29.9830 C.3    202  EDO202      0.0000
      4 O2          9.8770   -9.6590  -28.7270 O.3    202  EDO202      0.0000
      5 H          10.4847  -12.1984  -30.9094 H      202  EDO202      0.0000
      6 H          11.6874  -11.4405  -29.8161 H      202  EDO202      0.0000
      7 H          10.6275  -13.2610  -28.8605 H      202  EDO202      0.0000
      8 H           8.7527  -10.5491  -30.2322 H      202  EDO202      0.0000
      9 H          10.2093   -9.6781  -30.7763 H      202  EDO202      0.0000
     10 H           9.7185  -10.3175  -28.0601 H      202  EDO202      0.0000
@<TRIPOS>BOND
     1     1     2    1
     2     1     3    1
     3     1     5    1
     4     1     6    1
     5     2     7    1
     6     3     4    1
     7     3     8    1
     8     3     9    1
     9     4    10    1

