EDO_1_A_202
  -ISIS-            3D

 10  9  0  0  0  0  0  0  0  0  1 V2000
   10.6050  -11.6490  -29.9520 C   0  0  0  0  0
   10.1320  -12.4530  -28.8680 O   0  0  0  0  0
    9.8160  -10.3470  -29.9830 C   0  0  0  0  0
    9.8770   -9.6590  -28.7270 O   0  0  0  0  0
   10.4847  -12.1984  -30.9094 H   0  0  0  0  0
   11.6874  -11.4405  -29.8161 H   0  0  0  0  0
   10.6275  -13.2610  -28.8605 H   0  0  0  0  0
    8.7527  -10.5491  -30.2322 H   0  0  0  0  0
   10.2093   -9.6781  -30.7763 H   0  0  0  0  0
    9.7185  -10.3175  -28.0601 H   0  0  0  0  0
  1  2  1  0  0  0
  1  3  1  0  0  0
  1  5  1  0  0  0
  1  6  1  0  0  0
  2  7  1  0  0  0
  3  4  1  0  0  0
  3  8  1  0  0  0
  3  9  1  0  0  0
  4 10  1  0  0  0
M  END
$$$$
