06Y_1_A_201
  -ISIS-            3D

 18 18  0  0  0  0  0  0  0  0  1 V2000
  -43.1330  -32.2390    1.9740 C   0  0  0  0  0
  -43.1650  -33.4720    2.1460 O   0  0  0  0  0
  -43.4300  -31.6710    0.5970 C   0  0  0  0  0
  -43.4910  -32.6880   -0.4040 O   0  0  0  0  0
  -44.6660  -33.4450   -0.4550 C   0  0  0  0  0
  -44.6470  -34.5960   -1.1580 C   0  0  0  0  0
  -45.7830  -35.3780   -1.2870 C   0  0  0  0  0
  -46.9510  -35.0190   -0.7150 C   0  0  0  0  0
  -46.9880  -33.8910    0.0310 C   0  0  0  0  0
  -45.8470  -33.0870    0.1490 C   0  0  0  0  0
  -42.8730  -31.4990    2.9130 O   0  0  0  0  0
  -42.5887  -30.9978    0.3241 H   0  0  0  0  0
  -44.3256  -31.0205    0.5853 H   0  0  0  0  0
  -43.7131  -34.9204   -1.6487 H   0  0  0  0  0
  -45.7300  -36.3100   -1.8764 H   0  0  0  0  0
  -47.8533  -35.6420   -0.8377 H   0  0  0  0  0
  -47.9235  -33.5922    0.5347 H   0  0  0  0  0
  -45.9483  -32.1665    0.7444 H   0  0  0  0  0
  1  2  2  0  0  0
  1  3  1  0  0  0
  1 11  2  0  0  0
  3  4  1  0  0  0
  3 12  1  0  0  0
  3 13  1  0  0  0
  4  5  1  0  0  0
  5  6  2  0  0  0
  5 10  1  0  0  0
  6  7  1  0  0  0
  6 14  1  0  0  0
  7  8  2  0  0  0
  7 15  1  0  0  0
  8  9  1  0  0  0
  8 16  1  0  0  0
  9 10  2  0  0  0
  9 17  1  0  0  0
 10 18  1  0  0  0
M  END
$$$$
