G83_1_A_501
  -ISIS-            3D

 97 99  0  0  0  0  0  0  0  0  1 V2000
  -19.8210    3.7860  -19.9810 O   0  0  0  0  0
  -18.6830    4.2090  -20.1070 C   0  0  0  0  0
  -18.2430    5.2290  -19.1830 O   0  0  0  0  0
  -19.1740    5.7160  -18.2120 C   0  0  0  0  0
  -20.0130    6.8430  -18.7950 C   0  0  0  0  0
  -19.5200    8.1530  -18.8140 C   0  0  0  0  0
  -20.3090    9.1840  -19.3360 C   0  0  0  0  0
  -21.5910    8.9150  -19.8460 C   0  0  0  0  0
  -22.1010    7.6100  -19.8200 C   0  0  0  0  0
  -21.2970    6.5740  -19.2950 C   0  0  0  0  0
  -17.8350    3.7990  -21.0370 N   0  0  0  0  0
  -18.1880    2.7820  -22.0070 C   0  0  0  0  0
  -17.7580    3.4030  -23.3420 C   0  0  0  0  0
  -18.6550    4.5580  -23.7570 C   0  0  0  0  0
  -18.1690    5.5710  -24.2460 O   0  0  0  0  0
  -20.0960    4.4470  -23.5780 O   0  0  0  0  0
  -21.0710    5.4810  -23.7650 C   0  0  0  0  0
  -20.5460    6.8420  -23.3060 C   0  0  0  0  0
  -21.4800    5.5350  -25.2320 C   0  0  0  0  0
  -22.2850    5.1160  -22.9100 C   0  0  0  0  0
  -17.3520    1.5510  -21.8220 C   0  0  0  0  0
  -16.1360    1.6730  -21.7440 O   0  0  0  0  0
  -18.0060    0.3850  -21.7970 N   0  0  0  0  0
  -17.2820   -0.8620  -21.6930 C   0  0  0  0  0
  -18.3190   -1.9930  -21.7630 C   0  0  0  0  0
  -19.2480   -2.1610  -20.5660 C   0  0  0  0  0
  -20.4670   -2.8310  -20.7540 C   0  0  0  0  0
  -21.3690   -3.0300  -19.6950 C   0  0  0  0  0
  -21.0310   -2.5330  -18.4370 C   0  0  0  0  0
  -19.8260   -1.8590  -18.2390 C   0  0  0  0  0
  -18.9220   -1.6770  -19.2960 C   0  0  0  0  0
  -16.4410   -1.0420  -22.9280 C   0  0  0  0  0
  -16.9130   -0.7400  -24.0320 O   0  0  0  0  0
  -15.2140   -1.5780  -22.7810 N   0  0  0  0  0
  -14.3780   -1.8400  -23.9490 C   0  0  0  0  0
  -13.0910   -0.9890  -23.9590 C   0  0  0  0  0
  -13.3610    0.4510  -24.3580 C   0  0  0  0  0
  -14.0610    0.6310  -25.7160 C   0  0  0  0  0
  -13.3800    1.8260  -26.4320 C   0  0  0  0  0
  -12.1060    1.8290  -25.7230 N   0  0  0  0  0
  -12.0840    1.2050  -24.5460 C   0  0  0  0  0
  -11.2150    1.2530  -23.6970 O   0  0  0  0  0
  -13.9900   -3.3000  -23.7910 C   0  0  0  0  0
  -15.1650   -4.2690  -23.8620 C   0  0  0  0  0
  -14.9880   -4.7550  -25.2700 C   0  0  0  0  0
  -14.2210   -5.7260  -25.5040 O   0  0  0  0  0
  -15.6800   -3.9560  -26.3010 O   0  0  0  0  0
  -17.0160   -3.4970  -26.0000 C   0  0  0  0  0
  -17.9810   -3.7200  -27.1420 C   0  0  0  0  0
  -18.6134    6.1022  -17.3355 H   0  0  0  0  0
  -19.8208    4.9084  -17.8134 H   0  0  0  0  0
  -18.5140    8.3788  -18.4215 H   0  0  0  0  0
  -19.9202   10.2167  -19.3518 H   0  0  0  0  0
  -22.2003    9.7353  -20.2623 H   0  0  0  0  0
  -23.1105    7.3931  -20.2079 H   0  0  0  0  0
  -21.6941    5.5452  -19.2785 H   0  0  0  0  0
  -16.8881    4.1999  -21.0415 H   0  0  0  0  0
  -19.2751    2.5438  -22.0169 H   0  0  0  0  0
  -17.8285    2.6273  -24.1384 H   0  0  0  0  0
  -16.6942    3.7287  -23.3222 H   0  0  0  0  0
  -21.3595    7.5982  -23.2600 H   0  0  0  0  0
  -19.7784    7.2638  -23.9870 H   0  0  0  0  0
  -20.0984    6.7914  -22.2894 H   0  0  0  0  0
  -22.2661    6.2990  -25.4161 H   0  0  0  0  0
  -21.8818    4.5601  -25.5838 H   0  0  0  0  0
  -20.6212    5.7863  -25.8912 H   0  0  0  0  0
  -23.1009    5.8658  -22.9970 H   0  0  0  0  0
  -22.0208    5.0424  -21.8332 H   0  0  0  0  0
  -22.7136    4.1329  -23.2028 H   0  0  0  0  0
  -19.0341    0.3687  -21.8452 H   0  0  0  0  0
  -16.6619   -0.9165  -20.7712 H   0  0  0  0  0
  -17.7760   -2.9608  -21.8768 H   0  0  0  0  0
  -18.9349   -1.8806  -22.6856 H   0  0  0  0  0
  -20.7315   -3.2188  -21.7530 H   0  0  0  0  0
  -22.3209   -3.5634  -19.8556 H   0  0  0  0  0
  -21.7247   -2.6729  -17.5902 H   0  0  0  0  0
  -19.5780   -1.4688  -17.2368 H   0  0  0  0  0
  -17.9751   -1.1504  -19.0980 H   0  0  0  0  0
  -14.8534   -1.7847  -21.8393 H   0  0  0  0  0
  -14.9229   -1.7172  -24.9096 H   0  0  0  0  0
  -12.3663   -1.4264  -24.6849 H   0  0  0  0  0
  -12.6019   -1.0268  -22.9584 H   0  0  0  0  0
  -13.9581    0.9612  -23.5651 H   0  0  0  0  0
  -15.1558    0.7982  -25.6049 H   0  0  0  0  0
  -13.9214   -0.2800  -26.3429 H   0  0  0  0  0
  -13.9462    2.7705  -26.2683 H   0  0  0  0  0
  -13.2716    1.6468  -27.5247 H   0  0  0  0  0
  -11.2738    2.3238  -26.0696 H   0  0  0  0  0
  -13.4904   -3.4322  -22.8017 H   0  0  0  0  0
  -13.2008   -3.5593  -24.5338 H   0  0  0  0  0
  -16.1316   -3.7918  -23.6203 H   0  0  0  0  0
  -15.0186   -5.1095  -23.1479 H   0  0  0  0  0
  -16.9910   -2.4138  -25.7696 H   0  0  0  0  0
  -17.4396   -4.0134  -25.1147 H   0  0  0  0  0
  -19.0013   -3.3530  -26.8956 H   0  0  0  0  0
  -18.0699   -4.7987  -27.3964 H   0  0  0  0  0
  -17.6528   -3.1893  -28.0621 H   0  0  0  0  0
  1  2  2  0  0  0
  2  3  1  0  0  0
  2 11  1  0  0  0
  3  4  1  0  0  0
  4  5  1  0  0  0
  4 50  1  0  0  0
  4 51  1  0  0  0
  5  6  2  0  0  0
  5 10  1  0  0  0
  6  7  1  0  0  0
  6 52  1  0  0  0
  7  8  2  0  0  0
  7 53  1  0  0  0
  8  9  1  0  0  0
  8 54  1  0  0  0
  9 10  2  0  0  0
  9 55  1  0  0  0
 10 56  1  0  0  0
 11 12  1  0  0  0
 11 57  1  0  0  0
 12 13  1  0  0  0
 12 21  1  0  0  0
 12 58  1  0  0  0
 13 14  1  0  0  0
 13 59  1  0  0  0
 13 60  1  0  0  0
 14 15  2  0  0  0
 14 16  1  0  0  0
 16 17  1  0  0  0
 17 18  1  0  0  0
 17 19  1  0  0  0
 17 20  1  0  0  0
 18 61  1  0  0  0
 18 62  1  0  0  0
 18 63  1  0  0  0
 19 64  1  0  0  0
 19 65  1  0  0  0
 19 66  1  0  0  0
 20 67  1  0  0  0
 20 68  1  0  0  0
 20 69  1  0  0  0
 21 22  2  0  0  0
 21 23  1  0  0  0
 23 24  1  0  0  0
 23 70  1  0  0  0
 24 25  1  0  0  0
 24 32  1  0  0  0
 24 71  1  0  0  0
 25 26  1  0  0  0
 25 72  1  0  0  0
 25 73  1  0  0  0
 26 27  2  0  0  0
 26 31  1  0  0  0
 27 28  1  0  0  0
 27 74  1  0  0  0
 28 29  2  0  0  0
 28 75  1  0  0  0
 29 30  1  0  0  0
 29 76  1  0  0  0
 30 31  2  0  0  0
 30 77  1  0  0  0
 31 78  1  0  0  0
 32 33  2  0  0  0
 32 34  1  0  0  0
 34 35  1  0  0  0
 34 79  1  0  0  0
 35 36  1  0  0  0
 35 43  1  0  0  0
 35 80  1  0  0  0
 36 37  1  0  0  0
 36 81  1  0  0  0
 36 82  1  0  0  0
 37 38  1  0  0  0
 37 41  1  0  0  0
 37 83  1  0  0  0
 38 39  1  0  0  0
 38 84  1  0  0  0
 38 85  1  0  0  0
 39 40  1  0  0  0
 39 86  1  0  0  0
 39 87  1  0  0  0
 40 41  1  0  0  0
 40 88  1  0  0  0
 41 42  2  0  0  0
 43 44  1  0  0  0
 43 89  1  0  0  0
 43 90  1  0  0  0
 44 45  1  0  0  0
 44 91  1  0  0  0
 44 92  1  0  0  0
 45 46  2  0  0  0
 45 47  1  0  0  0
 47 48  1  0  0  0
 48 49  1  0  0  0
 48 93  1  0  0  0
 48 94  1  0  0  0
 49 95  1  0  0  0
 49 96  1  0  0  0
 49 97  1  0  0  0
M  END
$$$$
