@<TRIPOS>MOLECULE
DMS_1_A_406
 10 9 0 0 0
SMALL
NO_CHARGES

@<TRIPOS>ATOM
      1 S          25.2490   -4.0990   20.1250 S.o    406  DMS406      0.0000
      2 O          24.5470   -2.9260   19.5800 O.2    406  DMS406      0.0000
      3 C1         24.9700   -4.0340   21.8700 C.3    406  DMS406      0.0000
      4 C2         24.1950   -5.4580   19.7430 C.3    406  DMS406      0.0000
      5 H          25.3234   -4.9731   22.3427 H      406  DMS406      0.0000
      6 H          23.8904   -3.8968   22.0862 H      406  DMS406      0.0000
      7 H          25.5351   -3.1826   22.3014 H      406  DMS406      0.0000
      8 H          24.5588   -6.3722   20.2550 H      406  DMS406      0.0000
      9 H          24.2044   -5.6354   18.6480 H      406  DMS406      0.0000
     10 H          23.1543   -5.2465   20.0646 H      406  DMS406      0.0000
@<TRIPOS>BOND
     1     1     2    2
     2     1     3    1
     3     1     4    1
     4     3     5    1
     5     3     6    1
     6     3     7    1
     7     4     8    1
     8     4     9    1
     9     4    10    1

