DMS_2_A_404
  -ISIS-            3D

 10  9  0  0  0  0  0  0  0  0  1 V2000
  -21.2050   14.6130   -8.0940 S   0  0  0  0  0
  -22.6710   14.4720   -7.9320 O   0  0  0  0  0
  -20.7490   13.2050   -9.0530 C   0  0  0  0  0
  -20.5470   13.9840   -6.5790 C   0  0  0  0  0
  -19.6451   13.1003   -9.0729 H   0  0  0  0  0
  -21.1087   13.3404  -10.0941 H   0  0  0  0  0
  -21.2000   12.2807   -8.6381 H   0  0  0  0  0
  -19.4481   13.8592   -6.6652 H   0  0  0  0  0
  -21.0103   13.0103   -6.3211 H   0  0  0  0  0
  -20.7569   14.7059   -5.7626 H   0  0  0  0  0
  1  2  2  0  0  0
  1  3  1  0  0  0
  1  4  1  0  0  0
  3  5  1  0  0  0
  3  6  1  0  0  0
  3  7  1  0  0  0
  4  8  1  0  0  0
  4  9  1  0  0  0
  4 10  1  0  0  0
M  END
$$$$
