@<TRIPOS>MOLECULE
DMS_1_A_402
 10 9 0 0 0
SMALL
NO_CHARGES

@<TRIPOS>ATOM
      1 S           6.2200   -1.0450   -6.3000 S.o    402  DMS402      0.0000
      2 O           7.1020   -0.8570   -7.4400 O.2    402  DMS402      0.0000
      3 C1          7.3040   -0.9400   -4.9000 C.3    402  DMS402      0.0000
      4 C2          5.8790   -2.7770   -6.2880 C.3    402  DMS402      0.0000
      5 H           6.7575   -1.2346   -3.9809 H      402  DMS402      0.0000
      6 H           7.6589    0.1048   -4.7863 H      402  DMS402      0.0000
      7 H           8.1794   -1.6077   -5.0367 H      402  DMS402      0.0000
      8 H           5.3485   -3.0479   -5.3524 H      402  DMS402      0.0000
      9 H           6.8212   -3.3587   -6.3570 H      402  DMS402      0.0000
     10 H           5.2322   -3.0317   -7.1524 H      402  DMS402      0.0000
@<TRIPOS>BOND
     1     1     2    2
     2     1     3    1
     3     1     4    1
     4     3     5    1
     5     3     6    1
     6     3     7    1
     7     4     8    1
     8     4     9    1
     9     4    10    1

