@<TRIPOS>MOLECULE
DMS_2_A_407
 10 9 0 0 0
SMALL
NO_CHARGES

@<TRIPOS>ATOM
      1 S         -28.7090   14.9810   17.3310 S.o    407  DMS407      0.0000
      2 O         -29.5180   14.7420   16.1350 O.2    407  DMS407      0.0000
      3 C1        -29.8590   15.4110   18.6000 C.3    407  DMS407      0.0000
      4 C2        -27.9780   16.5750   17.0810 C.3    407  DMS407      0.0000
      5 H         -29.3128   15.7602   19.5000 H      407  DMS407      0.0000
      6 H         -30.4594   14.5185   18.8707 H      407  DMS407      0.0000
      7 H         -30.5417   16.2125   18.2500 H      407  DMS407      0.0000
      8 H         -27.4677   16.9040   18.0092 H      407  DMS407      0.0000
      9 H         -28.7538   17.3183   16.8041 H      407  DMS407      0.0000
     10 H         -27.2297   16.5126   16.2646 H      407  DMS407      0.0000
@<TRIPOS>BOND
     1     1     2    2
     2     1     3    1
     3     1     4    1
     4     3     5    1
     5     3     6    1
     6     3     7    1
     7     4     8    1
     8     4     9    1
     9     4    10    1

