@<TRIPOS>MOLECULE
DMS_1_A_401
 10 9 0 0 0
SMALL
NO_CHARGES

@<TRIPOS>ATOM
      1 S           6.9630  -28.1170   21.5650 S.o    401  DMS401      0.0000
      2 O           7.5830  -27.0580   22.3740 O.2    401  DMS401      0.0000
      3 C1          5.6440  -28.7560   22.5560 C.3    401  DMS401      0.0000
      4 C2          5.9820  -27.2950   20.3610 C.3    401  DMS401      0.0000
      5 H           5.0311  -29.4616   21.9585 H      401  DMS401      0.0000
      6 H           5.0009  -27.9315   22.9266 H      401  DMS401      0.0000
      7 H           6.0680  -29.3000   23.4248 H      401  DMS401      0.0000
      8 H           5.3634  -28.0325   19.8099 H      401  DMS401      0.0000
      9 H           6.6447  -26.7765   19.6382 H      401  DMS401      0.0000
     10 H           5.3200  -26.5460   20.8421 H      401  DMS401      0.0000
@<TRIPOS>BOND
     1     1     2    2
     2     1     3    1
     3     1     4    1
     4     3     5    1
     5     3     6    1
     6     3     7    1
     7     4     8    1
     8     4     9    1
     9     4    10    1

