DMS_2_A_403
  -ISIS-            3D

 10  9  0  0  0  0  0  0  0  0  1 V2000
   -2.3370  -18.9660   -8.1530 S   0  0  0  0  0
   -3.5670  -18.8390   -8.9820 O   0  0  0  0  0
   -1.1160  -18.0530   -9.0480 C   0  0  0  0  0
   -1.7200  -20.5500   -8.6590 C   0  0  0  0  0
   -0.1067  -18.2687   -8.6414 H   0  0  0  0  0
   -1.3171  -16.9680   -8.9345 H   0  0  0  0  0
   -1.1424  -18.3084  -10.1273 H   0  0  0  0  0
   -0.6926  -20.6991   -8.2681 H   0  0  0  0  0
   -1.7106  -20.6373   -9.7650 H   0  0  0  0  0
   -2.3732  -21.3451   -8.2443 H   0  0  0  0  0
  1  2  2  0  0  0
  1  3  1  0  0  0
  1  4  1  0  0  0
  3  5  1  0  0  0
  3  6  1  0  0  0
  3  7  1  0  0  0
  4  8  1  0  0  0
  4  9  1  0  0  0
  4 10  1  0  0  0
M  END
$$$$
