DMS_2_A_405
  -ISIS-            3D

 10  9  0  0  0  0  0  0  0  0  1 V2000
   -5.8620    0.3340  -18.2480 S   0  0  0  0  0
   -5.0410    1.3130  -19.0070 O   0  0  0  0  0
   -7.1330   -0.1300  -19.3890 C   0  0  0  0  0
   -6.8190    1.3190  -17.1730 C   0  0  0  0  0
   -7.9064   -0.7296  -18.8668 H   0  0  0  0  0
   -6.6923   -0.7450  -20.2002 H   0  0  0  0  0
   -7.6042    0.7704  -19.8344 H   0  0  0  0  0
   -7.5969    0.6981  -16.6836 H   0  0  0  0  0
   -7.3074    2.1457  -17.7290 H   0  0  0  0  0
   -6.1656    1.7519  -16.3880 H   0  0  0  0  0
  1  2  2  0  0  0
  1  3  1  0  0  0
  1  4  1  0  0  0
  3  5  1  0  0  0
  3  6  1  0  0  0
  3  7  1  0  0  0
  4  8  1  0  0  0
  4  9  1  0  0  0
  4 10  1  0  0  0
M  END
$$$$
