23H_2_A_401
  -ISIS-            3D

 71 74  0  0  0  0  0  0  0  0  1 V2000
   32.5680   16.2900  -26.0530 O   0  0  0  0  0
   33.1950   15.2460  -25.8150 C   0  0  0  0  0
   34.5050   15.2130  -26.1110 N   0  0  0  0  0
   35.2280   16.4110  -26.6300 C   0  0  0  0  0
   35.2990   17.4800  -25.5600 C   0  0  0  0  0
   35.5430   17.1740  -24.3950 O   0  0  0  0  0
   35.0680   18.7320  -25.9670 N   0  0  0  0  0
   35.1420   19.9760  -25.1720 C   0  0  0  0  0
   36.6170   20.2090  -24.7890 C   0  0  0  0  0
   34.2910   19.9790  -23.9120 C   0  0  0  0  0
   32.8790   19.4530  -24.0790 C   0  0  0  0  0
   34.6950   21.0950  -26.1280 C   0  0  0  0  0
   36.5860   16.1180  -27.1860 C   0  0  0  0  0
   37.7300   16.2110  -26.3930 C   0  0  0  0  0
   38.7620   15.8440  -27.2250 C   0  0  0  0  0
   38.2450   15.5500  -28.4710 C   0  0  0  0  0
   36.9110   15.7230  -28.4150 N   0  0  0  0  0
   35.9540   15.5150  -29.5320 C   0  0  0  0  0
   35.2590   14.0340  -25.8250 C   0  0  0  0  0
   36.1630   14.0780  -24.7740 C   0  0  0  0  0
   36.9600   12.9730  -24.4510 C   0  0  0  0  0
   35.1530   12.8560  -26.5660 C   0  0  0  0  0
   35.9330   11.7370  -26.2300 C   0  0  0  0  0
   36.8440   11.7860  -25.1730 C   0  0  0  0  0
   37.5630   10.6270  -24.9300 N   0  0  0  0  0
   38.5360   10.3850  -24.0450 C   0  0  0  0  0
   39.2090    9.0580  -23.9220 C   0  0  0  0  0
   38.9220   11.2790  -23.3060 O   0  0  0  0  0
   32.4530   14.0520  -25.2290 C   0  0  0  0  0
   31.1740   14.5470  -24.7930 N   0  0  0  0  0
   30.0630   14.3230  -25.5490 N   0  0  0  0  0
   28.9700   14.9430  -25.0040 N   0  0  0  0  0
   29.4370   15.5850  -23.9010 C   0  0  0  0  0
   30.8150   15.3490  -23.7790 C   0  0  0  0  0
   28.7390   16.3760  -22.9950 C   0  0  0  0  0
   29.4580   16.9400  -21.9270 C   0  0  0  0  0
   30.8360   16.7030  -21.8040 C   0  0  0  0  0
   31.5430   15.9140  -22.7190 C   0  0  0  0  0
   34.6327   16.8248  -27.4788 H   0  0  0  0  0
   34.8194   18.8507  -26.9588 H   0  0  0  0  0
   36.7558   21.1755  -24.2548 H   0  0  0  0  0
   37.2760   20.2342  -25.6858 H   0  0  0  0  0
   37.0105   19.4102  -24.1222 H   0  0  0  0  0
   34.2498   21.0107  -23.4921 H   0  0  0  0  0
   34.7904   19.3601  -23.1307 H   0  0  0  0  0
   32.3156   19.4977  -23.1197 H   0  0  0  0  0
   32.8610   18.3922  -24.4095 H   0  0  0  0  0
   32.2964   20.0416  -24.8211 H   0  0  0  0  0
   34.7277   22.0929  -25.6363 H   0  0  0  0  0
   33.6539   20.9487  -26.4923 H   0  0  0  0  0
   35.3473   21.1624  -27.0278 H   0  0  0  0  0
   37.8214   16.5062  -25.3393 H   0  0  0  0  0
   39.8242   15.7940  -26.9445 H   0  0  0  0  0
   38.7378   15.2257  -29.3963 H   0  0  0  0  0
   36.4393   15.0286  -30.4062 H   0  0  0  0  0
   35.5336   16.4838  -29.8809 H   0  0  0  0  0
   35.1059   14.8652  -29.2234 H   0  0  0  0  0
   36.2673   14.9880  -24.1657 H   0  0  0  0  0
   37.6637   13.0683  -23.6121 H   0  0  0  0  0
   34.4539   12.8029  -27.4169 H   0  0  0  0  0
   35.8102   10.8198  -26.8307 H   0  0  0  0  0
   37.2683    9.8612  -25.5497 H   0  0  0  0  0
   39.9895    9.0610  -23.1291 H   0  0  0  0  0
   39.7011    8.7753  -24.8789 H   0  0  0  0  0
   38.4721    8.2645  -23.6668 H   0  0  0  0  0
   32.9828   13.6311  -24.3458 H   0  0  0  0  0
   32.3024   13.2423  -25.9762 H   0  0  0  0  0
   27.6576   16.5531  -23.1108 H   0  0  0  0  0
   28.9384   17.5707  -21.1861 H   0  0  0  0  0
   31.3830   17.1565  -20.9596 H   0  0  0  0  0
   32.6260   15.7417  -22.6143 H   0  0  0  0  0
  1  2  2  0  0  0
  2  3  1  0  0  0
  2 29  1  0  0  0
  3  4  1  0  0  0
  3 19  1  0  0  0
  4  5  1  0  0  0
  4 13  1  0  0  0
  4 39  1  0  0  0
  5  6  2  0  0  0
  5  7  1  0  0  0
  7  8  1  0  0  0
  7 40  1  0  0  0
  8  9  1  0  0  0
  8 10  1  0  0  0
  8 12  1  0  0  0
  9 41  1  0  0  0
  9 42  1  0  0  0
  9 43  1  0  0  0
 10 11  1  0  0  0
 10 44  1  0  0  0
 10 45  1  0  0  0
 11 46  1  0  0  0
 11 47  1  0  0  0
 11 48  1  0  0  0
 12 49  1  0  0  0
 12 50  1  0  0  0
 12 51  1  0  0  0
 13 14  2  0  0  0
 13 17  1  0  0  0
 14 15  1  0  0  0
 14 52  1  0  0  0
 15 16  2  0  0  0
 15 53  1  0  0  0
 16 17  1  0  0  0
 16 54  1  0  0  0
 17 18  1  0  0  0
 18 55  1  0  0  0
 18 56  1  0  0  0
 18 57  1  0  0  0
 19 20  2  0  0  0
 19 22  1  0  0  0
 20 21  1  0  0  0
 20 58  1  0  0  0
 21 24  2  0  0  0
 21 59  1  0  0  0
 22 23  2  0  0  0
 22 60  1  0  0  0
 23 24  1  0  0  0
 23 61  1  0  0  0
 24 25  1  0  0  0
 25 26  1  0  0  0
 25 62  1  0  0  0
 26 27  1  0  0  0
 26 28  2  0  0  0
 27 63  1  0  0  0
 27 64  1  0  0  0
 27 65  1  0  0  0
 29 30  1  0  0  0
 29 66  1  0  0  0
 29 67  1  0  0  0
 30 31  1  0  0  0
 30 34  1  0  0  0
 31 32  1  0  0  0
 32 33  2  0  0  0
 33 34  1  0  0  0
 33 35  1  0  0  0
 34 38  2  0  0  0
 35 36  1  0  0  0
 35 68  1  0  0  0
 36 37  1  0  0  0
 36 69  1  0  0  0
 37 38  1  0  0  0
 37 70  1  0  0  0
 38 71  1  0  0  0
M  END
$$$$
