DMS_1_A_402
  -ISIS-            3D

 11 10  0  0  0  0  0  0  0  0  1 V2000
  -22.0950    3.4840  -26.3680 S   0  0  0  0  0
  -20.9110    2.7380  -25.2250 O   0  0  0  0  0
  -21.2950    4.8230  -27.2890 C   0  0  0  0  0
  -22.4460    2.3840  -27.7650 C   0  0  0  0  0
  -21.4689    1.7289  -24.6160 H   0  0  0  0  0
  -22.0235    5.2416  -28.0120 H   0  0  0  0  0
  -20.4080    4.4165  -27.8149 H   0  0  0  0  0
  -20.9866    5.6015  -26.5627 H   0  0  0  0  0
  -23.1331    2.9038  -28.4623 H   0  0  0  0  0
  -22.9260    1.4676  -27.3670 H   0  0  0  0  0
  -21.4923    2.1290  -28.2690 H   0  0  0  0  0
  1  2  1  0  0  0
  1  3  1  0  0  0
  1  4  1  0  0  0
  2  5  1  0  0  0
  3  6  1  0  0  0
  3  7  1  0  0  0
  3  8  1  0  0  0
  4  9  1  0  0  0
  4 10  1  0  0  0
  4 11  1  0  0  0
M  END
$$$$
