@<TRIPOS>MOLECULE
DMS_2_A_402
 11 10 0 0 0
SMALL
NO_CHARGES

@<TRIPOS>ATOM
      1 S          41.2510    3.4840  -23.1990 S.o    402  DMS402      0.0000
      2 O          40.0670    2.7380  -24.3420 O.2    402  DMS402      0.0000
      3 C1         40.4510    4.8230  -22.2780 C.3    402  DMS402      0.0000
      4 C2         41.6020    2.3840  -21.8020 C.3    402  DMS402      0.0000
      5 H          40.6249    1.7289  -24.9510 H      402  DMS402      0.0000
      6 H          41.1795    5.2416  -21.5550 H      402  DMS402      0.0000
      7 H          39.5639    4.4165  -21.7521 H      402  DMS402      0.0000
      8 H          40.1426    5.6015  -23.0043 H      402  DMS402      0.0000
      9 H          42.2891    2.9038  -21.1047 H      402  DMS402      0.0000
     10 H          42.0820    1.4676  -22.2000 H      402  DMS402      0.0000
     11 H          40.6483    2.1290  -21.2980 H      402  DMS402      0.0000
@<TRIPOS>BOND
     1     1     2    1
     2     1     3    1
     3     1     4    1
     4     2     5    1
     5     3     6    1
     6     3     7    1
     7     3     8    1
     8     4     9    1
     9     4    10    1
    10     4    11    1

