DMS_2_A_403
  -ISIS-            3D

 11 10  0  0  0  0  0  0  0  0  1 V2000
   35.1090    9.5220  -41.8460 S   0  0  0  0  0
   36.2980   10.6830  -41.1770 O   0  0  0  0  0
   33.6230   10.3780  -42.4200 C   0  0  0  0  0
   35.7440    8.9430  -43.4480 C   0  0  0  0  0
   37.3803   10.0466  -40.8253 H   0  0  0  0  0
   32.9455    9.6358  -42.8876 H   0  0  0  0  0
   33.9182   11.1565  -43.1517 H   0  0  0  0  0
   33.1335   10.8435  -41.5412 H   0  0  0  0  0
   34.9949    8.2620  -43.8994 H   0  0  0  0  0
   36.6938    8.4015  -43.2660 H   0  0  0  0  0
   35.9210    9.8213  -44.1007 H   0  0  0  0  0
  1  2  1  0  0  0
  1  3  1  0  0  0
  1  4  1  0  0  0
  2  5  1  0  0  0
  3  6  1  0  0  0
  3  7  1  0  0  0
  3  8  1  0  0  0
  4  9  1  0  0  0
  4 10  1  0  0  0
  4 11  1  0  0  0
M  END
$$$$
