@<TRIPOS>MOLECULE
ALD_1_A_402
 77 77 0 0 0
SMALL
NO_CHARGES

@<TRIPOS>ATOM
      1 C9        -21.8820  -10.3620  -31.0480 C.2    402  ALD402      0.0000
      2 O31       -22.8860   -9.9280  -31.6010 O.2    402  ALD402      0.0000
      3 O8        -21.0790  -11.3820  -31.6690 O.3    402  ALD402      0.0000
      4 C7        -21.4900  -11.9510  -32.9250 C.3    402  ALD402      0.0000
      5 C3        -22.5020  -13.0580  -32.7120 C.ar   402  ALD402      0.0000
      6 C4        -23.8630  -12.7620  -32.7570 C.ar   402  ALD402      0.0000
      7 C5        -24.7900  -13.7760  -32.5920 C.ar   402  ALD402      0.0000
      8 C6        -24.3670  -15.0800  -32.3780 C.ar   402  ALD402      0.0000
      9 C1        -23.0110  -15.3600  -32.2990 C.ar   402  ALD402      0.0000
     10 C2        -22.0830  -14.3450  -32.4790 C.ar   402  ALD402      0.0000
     11 N10       -21.4490   -9.9610  -29.8490 N.am   402  ALD402      0.0000
     12 C11       -22.1320   -8.9430  -29.1150 C.3    402  ALD402      0.0000
     13 C12       -21.3310   -7.6620  -29.1710 C.2    402  ALD402      0.0000
     14 O32       -20.1250   -7.6740  -28.8750 O.2    402  ALD402      0.0000
     15 C30       -22.2400   -9.3300  -27.6380 C.3    402  ALD402      0.0000
     16 C31       -23.1910  -10.4770  -27.3640 C.3    402  ALD402      0.0000
     17 C32       -23.4450  -10.5330  -25.8540 C.3    402  ALD402      0.0000
     18 C33       -24.5240  -10.3190  -28.0870 C.3    402  ALD402      0.0000
     19 N13       -21.9650   -6.5690  -29.5640 N.am   402  ALD402      0.0000
     20 C14       -21.3630   -5.2670  -29.4270 C.3    402  ALD402      0.0000
     21 C15       -21.2800   -4.7540  -28.0090 C.2    402  ALD402      0.0000
     22 O34       -22.3000   -4.3600  -27.4600 O.2    402  ALD402      0.0000
     23 C24       -22.1430   -4.3100  -30.2950 C.3    402  ALD402      0.0000
     24 C25       -22.2760   -4.7870  -31.7420 C.3    402  ALD402      0.0000
     25 C26       -20.9280   -4.8100  -32.4560 C.3    402  ALD402      0.0000
     26 C27       -23.2610   -3.9170  -32.5230 C.3    402  ALD402      0.0000
     27 N16       -20.0870   -4.7570  -27.3970 N.am   402  ALD402      0.0000
     28 C17       -19.8450   -4.1900  -26.0720 C.3    402  ALD402      0.0000
     29 C22       -19.4860   -2.6800  -26.2470 C.3    402  ALD402      0.0000
     30 C18       -18.7610   -4.9160  -25.2860 C.3    402  ALD402      0.0000
     31 C19       -19.0740   -6.4120  -25.1410 C.3    402  ALD402      0.0000
     32 C20       -20.4790   -6.7130  -24.6490 C.3    402  ALD402      0.0000
     33 C21       -18.0390   -7.0660  -24.2260 C.3    402  ALD402      0.0000
     34 O33       -19.4930   -1.9520  -25.0260 O.3    402  ALD402      0.0000
     35 H         -20.6006  -12.3619  -33.4462 H      402  ALD402      0.0000
     36 H         -21.8990  -11.1753  -33.6045 H      402  ALD402      0.0000
     37 H         -24.2110  -11.7301  -32.9297 H      402  ALD402      0.0000
     38 H         -25.8687  -13.5472  -32.6346 H      402  ALD402      0.0000
     39 H         -25.1075  -15.8891  -32.2572 H      402  ALD402      0.0000
     40 H         -22.6710  -16.3917  -32.1048 H      402  ALD402      0.0000
     41 H         -21.0063  -14.5820  -32.4300 H      402  ALD402      0.0000
     42 H         -20.5887  -10.3733  -29.4669 H      402  ALD402      0.0000
     43 H         -23.1471   -8.7440  -29.5237 H      402  ALD402      0.0000
     44 H         -22.5947   -8.4330  -27.0766 H      402  ALD402      0.0000
     45 H         -21.2317   -9.5704  -27.2272 H      402  ALD402      0.0000
     46 H         -22.7179  -11.4354  -27.6888 H      402  ALD402      0.0000
     47 H         -24.0900  -11.3977  -25.5796 H      402  ALD402      0.0000
     48 H         -23.9501   -9.6159  -25.4762 H      402  ALD402      0.0000
     49 H         -22.4972  -10.6479  -25.2814 H      402  ALD402      0.0000
     50 H         -25.2587  -11.0849  -27.7515 H      402  ALD402      0.0000
     51 H         -24.4308  -10.4524  -29.1868 H      402  ALD402      0.0000
     52 H         -24.9883   -9.3243  -27.9026 H      402  ALD402      0.0000
     53 H         -22.9345   -6.6478  -29.8970 H      402  ALD402      0.0000
     54 H         -20.3223   -5.2923  -29.8292 H      402  ALD402      0.0000
     55 H         -21.6632   -3.3038  -30.2731 H      402  ALD402      0.0000
     56 H         -23.1650   -4.1756  -29.8693 H      402  ALD402      0.0000
     57 H         -22.6886   -5.8233  -31.7671 H      402  ALD402      0.0000
     58 H         -21.0372   -5.0977  -33.5257 H      402  ALD402      0.0000
     59 H         -20.2232   -5.5442  -32.0082 H      402  ALD402      0.0000
     60 H         -20.4289   -3.8155  -32.4360 H      402  ALD402      0.0000
     61 H         -23.3889   -4.2742  -33.5695 H      402  ALD402      0.0000
     62 H         -22.9257   -2.8570  -32.5752 H      402  ALD402      0.0000
     63 H         -24.2718   -3.9199  -32.0568 H      402  ALD402      0.0000
     64 H         -19.2938   -5.1921  -27.8898 H      402  ALD402      0.0000
     65 H         -20.7832   -4.2197  -25.4697 H      402  ALD402      0.0000
     66 H         -20.2207   -2.2111  -26.9386 H      402  ALD402      0.0000
     67 H         -18.4893   -2.5824  -26.7293 H      402  ALD402      0.0000
     68 H         -18.6667   -4.4546  -24.2759 H      402  ALD402      0.0000
     69 H         -17.7759   -4.7875  -25.7913 H      402  ALD402      0.0000
     70 H         -18.9660   -6.8860  -26.1482 H      402  ALD402      0.0000
     71 H         -20.6253   -7.8027  -24.4753 H      402  ALD402      0.0000
     72 H         -21.2623   -6.4128  -25.3786 H      402  ALD402      0.0000
     73 H         -20.7012   -6.1984  -23.6875 H      402  ALD402      0.0000
     74 H         -18.1835   -8.1679  -24.1619 H      402  ALD402      0.0000
     75 H         -18.0910   -6.6672  -23.1882 H      402  ALD402      0.0000
     76 H         -17.0011   -6.8991  -24.5921 H      402  ALD402      0.0000
     77 H         -19.3814   -1.0316  -25.2235 H      402  ALD402      0.0000
@<TRIPOS>BOND
     1     1     2    2
     2     1     3    1
     3     1    11    1
     4     3     4    1
     5     4     5    1
     6     4    35    1
     7     4    36    1
     8     5     6   ar
     9     5    10   ar
    10     6     7   ar
    11     6    37    1
    12     7     8   ar
    13     7    38    1
    14     8     9   ar
    15     8    39    1
    16     9    10   ar
    17     9    40    1
    18    10    41    1
    19    11    12    1
    20    11    42    1
    21    12    13    1
    22    12    15    1
    23    12    43    1
    24    13    14    2
    25    13    19    1
    26    15    16    1
    27    15    44    1
    28    15    45    1
    29    16    17    1
    30    16    18    1
    31    16    46    1
    32    17    47    1
    33    17    48    1
    34    17    49    1
    35    18    50    1
    36    18    51    1
    37    18    52    1
    38    19    20    1
    39    19    53    1
    40    20    21    1
    41    20    23    1
    42    20    54    1
    43    21    22    2
    44    21    27    1
    45    23    24    1
    46    23    55    1
    47    23    56    1
    48    24    25    1
    49    24    26    1
    50    24    57    1
    51    25    58    1
    52    25    59    1
    53    25    60    1
    54    26    61    1
    55    26    62    1
    56    26    63    1
    57    27    28    1
    58    27    64    1
    59    28    29    1
    60    28    30    1
    61    28    65    1
    62    29    34    1
    63    29    66    1
    64    29    67    1
    65    30    31    1
    66    30    68    1
    67    30    69    1
    68    31    32    1
    69    31    33    1
    70    31    70    1
    71    32    71    1
    72    32    72    1
    73    32    73    1
    74    33    74    1
    75    33    75    1
    76    33    76    1
    77    34    77    1

