@<TRIPOS>MOLECULE
ALD_1_B_401
 77 77 0 0 0
SMALL
NO_CHARGES

@<TRIPOS>ATOM
      1 C9         20.2890  -10.0820   -0.1210 C.2    401  ALD401      0.0000
      2 O31        21.1290   -9.4620    0.5090 O.2    401  ALD401      0.0000
      3 O8         19.5060  -11.0990    0.5530 O.3    401  ALD401      0.0000
      4 C7         19.9250  -11.6080    1.8150 C.3    401  ALD401      0.0000
      5 C3         20.8540  -12.7790    1.5730 C.ar   401  ALD401      0.0000
      6 C4         22.2400  -12.5880    1.6220 C.ar   401  ALD401      0.0000
      7 C5         23.0850  -13.6640    1.4160 C.ar   401  ALD401      0.0000
      8 C6         22.5530  -14.9320    1.1620 C.ar   401  ALD401      0.0000
      9 C1         21.1770  -15.1130    1.1280 C.ar   401  ALD401      0.0000
     10 C2         20.3310  -14.0360    1.3320 C.ar   401  ALD401      0.0000
     11 N10        20.0350   -9.9020   -1.4110 N.am   401  ALD401      0.0000
     12 C11        20.5540   -8.7550   -2.1290 C.3    401  ALD401      0.0000
     13 C12        19.7180   -7.5080   -2.0900 C.2    401  ALD401      0.0000
     14 O32        18.5190   -7.5170   -2.4120 O.2    401  ALD401      0.0000
     15 C30        20.6610   -9.1880   -3.5950 C.3    401  ALD401      0.0000
     16 C31        21.5280  -10.4270   -3.7820 C.3    401  ALD401      0.0000
     17 C32        21.3470  -11.0040   -5.1820 C.3    401  ALD401      0.0000
     18 C33        22.9910  -10.0970   -3.4900 C.3    401  ALD401      0.0000
     19 N13        20.3400   -6.4090   -1.7020 N.am   401  ALD401      0.0000
     20 C14        19.6940   -5.1020   -1.8040 C.3    401  ALD401      0.0000
     21 C15        19.5280   -4.6020   -3.2200 C.2    401  ALD401      0.0000
     22 O34        20.4950   -4.2920   -3.8680 O.2    401  ALD401      0.0000
     23 C24        20.4950   -4.0780   -1.0120 C.3    401  ALD401      0.0000
     24 C25        20.6070   -4.4590    0.4570 C.3    401  ALD401      0.0000
     25 C26        19.2630   -4.2680    1.1730 C.3    401  ALD401      0.0000
     26 C27        21.6880   -3.6350    1.1400 C.3    401  ALD401      0.0000
     27 N16        18.2700   -4.5450   -3.6980 N.am   401  ALD401      0.0000
     28 C17        17.9710   -3.9650   -5.0110 C.3    401  ALD401      0.0000
     29 C22        17.5870   -2.4870   -4.8190 C.3    401  ALD401      0.0000
     30 C18        16.8780   -4.7100   -5.7290 C.3    401  ALD401      0.0000
     31 C19        17.1570   -6.2000   -5.8950 C.3    401  ALD401      0.0000
     32 C20        18.5760   -6.5220   -6.3180 C.3    401  ALD401      0.0000
     33 C21        16.1220   -6.8160   -6.8410 C.3    401  ALD401      0.0000
     34 O33        17.3820   -1.8660   -6.0930 O.3    401  ALD401      0.0000
     35 H          19.0399  -11.9471    2.3917 H      401  ALD401      0.0000
     36 H          20.4146  -10.8331    2.4385 H      401  ALD401      0.0000
     37 H          22.6628  -11.5886    1.8203 H      401  ALD401      0.0000
     38 H          24.1787  -13.5221    1.4496 H      401  ALD401      0.0000
     39 H          23.2277  -15.7886    0.9931 H      401  ALD401      0.0000
     40 H          20.7580  -16.1154    0.9351 H      401  ALD401      0.0000
     41 H          19.2388  -14.1897    1.2995 H      401  ALD401      0.0000
     42 H          19.3856  -10.5532   -1.8698 H      401  ALD401      0.0000
     43 H          21.5792   -8.5109   -1.7672 H      401  ALD401      0.0000
     44 H          21.0660   -8.3489   -4.2075 H      401  ALD401      0.0000
     45 H          19.6386   -9.3924   -3.9911 H      401  ALD401      0.0000
     46 H          21.2094  -11.2229   -3.0669 H      401  ALD401      0.0000
     47 H          21.9603  -11.9209   -5.3309 H      401  ALD401      0.0000
     48 H          21.6458  -10.2774   -5.9705 H      401  ALD401      0.0000
     49 H          20.2891  -11.2888   -5.3790 H      401  ALD401      0.0000
     50 H          23.6490  -10.9731   -3.6862 H      401  ALD401      0.0000
     51 H          23.1627   -9.8124   -2.4292 H      401  ALD401      0.0000
     52 H          23.3657   -9.2630   -4.1245 H      401  ALD401      0.0000
     53 H          21.3118   -6.4642   -1.3706 H      401  ALD401      0.0000
     54 H          18.6801   -5.1554   -1.3427 H      401  ALD401      0.0000
     55 H          20.0305   -3.0693   -1.1091 H      401  ALD401      0.0000
     56 H          21.5166   -3.9960   -1.4513 H      401  ALD401      0.0000
     57 H          20.9017   -5.5307    0.5555 H      401  ALD401      0.0000
     58 H          19.3500   -4.4831    2.2617 H      401  ALD401      0.0000
     59 H          18.4730   -4.9469    0.7847 H      401  ALD401      0.0000
     60 H          18.8830   -3.2263    1.0774 H      401  ALD401      0.0000
     61 H          21.7957   -3.9059    2.2143 H      401  ALD401      0.0000
     62 H          21.4691   -2.5445    1.0968 H      401  ALD401      0.0000
     63 H          22.6850   -3.7897    0.6697 H      401  ALD401      0.0000
     64 H          17.4972   -4.9204   -3.1306 H      401  ALD401      0.0000
     65 H          18.8800   -3.9814   -5.6572 H      401  ALD401      0.0000
     66 H          18.3795   -1.9421   -4.2610 H      401  ALD401      0.0000
     67 H          16.6543   -2.4009   -4.2223 H      401  ALD401      0.0000
     68 H          16.7351   -4.2581   -6.7381 H      401  ALD401      0.0000
     69 H          15.9119   -4.5766   -5.1884 H      401  ALD401      0.0000
     70 H          17.0037   -6.6817   -4.8965 H      401  ALD401      0.0000
     71 H          18.7060   -7.6124   -6.5005 H      401  ALD401      0.0000
     72 H          19.3311   -6.2505   -5.5498 H      401  ALD401      0.0000
     73 H          18.8547   -6.0026   -7.2620 H      401  ALD401      0.0000
     74 H          16.2360   -7.9212   -6.9094 H      401  ALD401      0.0000
     75 H          16.2136   -6.4129   -7.8744 H      401  ALD401      0.0000
     76 H          15.0808   -6.6197   -6.4996 H      401  ALD401      0.0000
     77 H          18.2271   -1.6232   -6.4478 H      401  ALD401      0.0000
@<TRIPOS>BOND
     1     1     2    2
     2     1     3    1
     3     1    11    1
     4     3     4    1
     5     4     5    1
     6     4    35    1
     7     4    36    1
     8     5     6   ar
     9     5    10   ar
    10     6     7   ar
    11     6    37    1
    12     7     8   ar
    13     7    38    1
    14     8     9   ar
    15     8    39    1
    16     9    10   ar
    17     9    40    1
    18    10    41    1
    19    11    12    1
    20    11    42    1
    21    12    13    1
    22    12    15    1
    23    12    43    1
    24    13    14    2
    25    13    19    1
    26    15    16    1
    27    15    44    1
    28    15    45    1
    29    16    17    1
    30    16    18    1
    31    16    46    1
    32    17    47    1
    33    17    48    1
    34    17    49    1
    35    18    50    1
    36    18    51    1
    37    18    52    1
    38    19    20    1
    39    19    53    1
    40    20    21    1
    41    20    23    1
    42    20    54    1
    43    21    22    2
    44    21    27    1
    45    23    24    1
    46    23    55    1
    47    23    56    1
    48    24    25    1
    49    24    26    1
    50    24    57    1
    51    25    58    1
    52    25    59    1
    53    25    60    1
    54    26    61    1
    55    26    62    1
    56    26    63    1
    57    27    28    1
    58    27    64    1
    59    28    29    1
    60    28    30    1
    61    28    65    1
    62    29    34    1
    63    29    66    1
    64    29    67    1
    65    30    31    1
    66    30    68    1
    67    30    69    1
    68    31    32    1
    69    31    33    1
    70    31    70    1
    71    32    71    1
    72    32    72    1
    73    32    73    1
    74    33    74    1
    75    33    75    1
    76    33    76    1
    77    34    77    1

