DMS_1_A_402
  -ISIS-            3D

 10  9  0  0  0  0  0  0  0  0  1 V2000
    5.9880   -1.1000   -6.3930 S   0  0  0  0  0
    7.0490   -0.9470   -7.4250 O   0  0  0  0  0
    6.8300   -0.9500   -4.8280 C   0  0  0  0  0
    5.6480   -2.8220   -6.2860 C   0  0  0  0  0
    6.1349   -1.2007   -4.0008 H   0  0  0  0  0
    7.1773    0.0955   -4.6983 H   0  0  0  0  0
    7.7074   -1.6282   -4.7929 H   0  0  0  0  0
    4.9806   -3.0232   -5.4233 H   0  0  0  0  0
    6.5883   -3.3988   -6.1669 H   0  0  0  0  0
    5.1391   -3.1543   -7.2138 H   0  0  0  0  0
  1  2  2  0  0  0
  1  3  1  0  0  0
  1  4  1  0  0  0
  3  5  1  0  0  0
  3  6  1  0  0  0
  3  7  1  0  0  0
  4  8  1  0  0  0
  4  9  1  0  0  0
  4 10  1  0  0  0
M  END
$$$$
