@<TRIPOS>MOLECULE
DMS_2_A_403
 10 9 0 0 0
SMALL
NO_CHARGES

@<TRIPOS>ATOM
      1 S          -2.4850  -18.8520   -8.1440 S.o    403  DMS403      0.0000
      2 O          -3.7760  -18.6410   -8.9080 O.2    403  DMS403      0.0000
      3 C1         -1.1920  -18.1130   -9.1130 C.3    403  DMS403      0.0000
      4 C2         -2.0430  -20.5430   -8.4480 C.3    403  DMS403      0.0000
      5 H          -0.2029  -18.3766   -8.6858 H      403  DMS403      0.0000
      6 H          -1.3065  -17.0099   -9.0951 H      403  DMS403      0.0000
      7 H          -1.2469  -18.4637  -10.1641 H      403  DMS403      0.0000
      8 H          -1.0296  -20.7462   -8.0456 H      403  DMS403      0.0000
      9 H          -2.0587  -20.7588   -9.5362 H      403  DMS403      0.0000
     10 H          -2.7692  -21.2088   -7.9385 H      403  DMS403      0.0000
@<TRIPOS>BOND
     1     1     2    2
     2     1     3    1
     3     1     4    1
     4     3     5    1
     5     3     6    1
     6     3     7    1
     7     4     8    1
     8     4     9    1
     9     4    10    1

