@<TRIPOS>MOLECULE
DMS_2_A_401
 10 9 0 0 0
SMALL
NO_CHARGES

@<TRIPOS>ATOM
      1 S          -7.1900  -28.0200  -21.3710 S.o    401  DMS401      0.0000
      2 O          -7.9090  -27.0590  -22.2470 O.2    401  DMS401      0.0000
      3 C1         -5.9490  -28.7880  -22.3940 C.3    401  DMS401      0.0000
      4 C2         -6.0960  -27.0310  -20.3760 C.3    401  DMS401      0.0000
      5 H          -5.2736  -29.4047  -21.7664 H      401  DMS401      0.0000
      6 H          -5.3565  -28.0167  -22.9276 H      401  DMS401      0.0000
      7 H          -6.4438  -29.4437  -23.1392 H      401  DMS401      0.0000
      8 H          -5.4150  -27.6890  -19.7986 H      401  DMS401      0.0000
      9 H          -6.6945  -26.4243  -19.6661 H      401  DMS401      0.0000
     10 H          -5.4977  -26.3516  -21.0172 H      401  DMS401      0.0000
@<TRIPOS>BOND
     1     1     2    2
     2     1     3    1
     3     1     4    1
     4     3     5    1
     5     3     6    1
     6     3     7    1
     7     4     8    1
     8     4     9    1
     9     4    10    1

