CLU_1_A_401
  -ISIS-            3D

 21 22  0  0  0  0  0  0  0  0  1 V2000
   16.3360  -24.9920    1.7400 Cl  0  0  0  0  0
   16.6920  -25.6290    5.6350 C   0  0  0  0  0
   17.8030  -24.8540    5.9970 C   0  0  0  0  0
   18.4600  -24.1140    5.0190 C   0  0  0  0  0
   17.9910  -24.1590    3.7010 C   0  0  0  0  0
   16.1720  -25.7380    4.3290 C   0  0  0  0  0
   16.8820  -24.9670    3.3880 C   0  0  0  0  0
   15.9200  -26.5290    6.8580 Cl  0  0  0  0  0
   15.0010  -26.5550    4.0110 N   0  0  0  0  0
   13.6620  -26.0470    3.7530 C   0  0  0  0  0
   13.3500  -24.7660    3.7420 N   0  0  0  0  0
   11.9690  -24.6030    3.2140 C   0  0  0  0  0
   11.3590  -26.0020    3.2270 C   0  0  0  0  0
   12.5340  -26.8810    3.4680 N   0  0  0  0  0
   18.1588  -24.8251    7.0403 H   0  0  0  0  0
   19.3354  -23.4959    5.2788 H   0  0  0  0  0
   18.4953  -23.5675    2.9189 H   0  0  0  0  0
   15.1334  -27.5739    4.0000 H   0  0  0  0  0
   11.4686  -23.6505    2.9984 H   0  0  0  0  0
   10.3600  -26.4012    3.0271 H   0  0  0  0  0
   12.5138  -28.1968    3.4996 H   0  0  0  0  0
  1  7  1  0  0  0
  2  3  2  0  0  0
  2  6  1  0  0  0
  2  8  1  0  0  0
  3  4  1  0  0  0
  3 15  1  0  0  0
  4  5  2  0  0  0
  4 16  1  0  0  0
  5  7  1  0  0  0
  5 17  1  0  0  0
  6  7  2  0  0  0
  6  9  1  0  0  0
  9 10  1  0  0  0
  9 18  1  0  0  0
 10 11  2  0  0  0
 10 14  1  0  0  0
 11 12  1  0  0  0
 12 13  1  0  0  0
 12 19  1  0  0  0
 13 14  1  0  0  0
 13 20  1  0  0  0
 14 21  1  0  0  0
M  END
$$$$
