DMS_2_A_405
  -ISIS-            3D

 10  9  0  0  0  0  0  0  0  0  1 V2000
   -7.0060  -28.2070  -21.3380 S   0  0  0  0  0
   -7.7810  -27.2430  -22.1910 O   0  0  0  0  0
   -5.7110  -28.8750  -22.4070 C   0  0  0  0  0
   -5.9770  -27.2560  -20.2140 C   0  0  0  0  0
   -5.0281  -29.5133  -21.8099 H   0  0  0  0  0
   -5.1359  -28.0477  -22.8711 H   0  0  0  0  0
   -6.1765  -29.4893  -23.2048 H   0  0  0  0  0
   -5.2950  -27.9374  -19.6656 H   0  0  0  0  0
   -6.6242  -26.7272  -19.4847 H   0  0  0  0  0
   -5.3815  -26.5109  -20.7803 H   0  0  0  0  0
  1  2  2  0  0  0
  1  3  1  0  0  0
  1  4  1  0  0  0
  3  5  1  0  0  0
  3  6  1  0  0  0
  3  7  1  0  0  0
  4  8  1  0  0  0
  4  9  1  0  0  0
  4 10  1  0  0  0
M  END
$$$$
