@<TRIPOS>MOLECULE
DMS_2_A_404
 10 9 0 0 0
SMALL
NO_CHARGES

@<TRIPOS>ATOM
      1 S          -2.2060  -18.9010   -8.1970 S.o    404  DMS404      0.0000
      2 O          -2.1290  -20.3490   -7.8580 O.2    404  DMS404      0.0000
      3 C1         -1.0590  -18.5590   -9.5700 C.3    404  DMS404      0.0000
      4 C2         -3.7690  -18.7200   -9.1060 C.3    404  DMS404      0.0000
      5 H          -1.2126  -17.5220   -9.9320 H      404  DMS404      0.0000
      6 H          -1.2365  -19.2747  -10.3991 H      404  DMS404      0.0000
      7 H          -0.0163  -18.6683   -9.2081 H      404  DMS404      0.0000
      8 H          -3.8538  -17.6850   -9.4955 H      404  DMS404      0.0000
      9 H          -4.6164  -18.9200   -8.4184 H      404  DMS404      0.0000
     10 H          -3.8036  -19.4395   -9.9498 H      404  DMS404      0.0000
@<TRIPOS>BOND
     1     1     2    2
     2     1     3    1
     3     1     4    1
     4     3     5    1
     5     3     6    1
     6     3     7    1
     7     4     8    1
     8     4     9    1
     9     4    10    1

