@<TRIPOS>MOLECULE
DMS_1_A_406
 10 9 0 0 0
SMALL
NO_CHARGES

@<TRIPOS>ATOM
      1 S           6.2290   -1.0240   -6.3000 S.o    406  DMS406      0.0000
      2 O           7.1870   -0.9600   -7.4400 O.2    406  DMS406      0.0000
      3 C1          5.6660   -2.7140   -5.9550 C.3    406  DMS406      0.0000
      4 C2          7.2130   -0.8300   -4.7870 C.3    406  DMS406      0.0000
      5 H           5.0543   -2.7232   -5.0295 H      406  DMS406      0.0000
      6 H           6.5383   -3.3883   -5.8349 H      406  DMS406      0.0000
      7 H           5.0457   -3.0687   -6.8033 H      406  DMS406      0.0000
      8 H           6.5562   -0.9285   -3.8986 H      406  DMS406      0.0000
      9 H           7.6779    0.1769   -4.7827 H      406  DMS406      0.0000
     10 H           8.0106   -1.6001   -4.7497 H      406  DMS406      0.0000
@<TRIPOS>BOND
     1     1     2    2
     2     1     3    1
     3     1     4    1
     4     3     5    1
     5     3     6    1
     6     3     7    1
     7     4     8    1
     8     4     9    1
     9     4    10    1

