DMS_1_A_407
  -ISIS-            3D

 10  9  0  0  0  0  0  0  0  0  1 V2000
    5.9200    0.3770   18.4940 S   0  0  0  0  0
    7.0060    0.6520   17.5010 O   0  0  0  0  0
    6.6160    0.0970   20.1480 C   0  0  0  0  0
    5.0240    1.9170   18.8430 C   0  0  0  0  0
    5.7936   -0.0307   20.8812 H   0  0  0  0  0
    7.2490    0.9591   20.4422 H   0  0  0  0  0
    7.2351   -0.8231   20.1310 H   0  0  0  0  0
    4.2568    1.7329   19.6226 H   0  0  0  0  0
    4.5245    2.2657   17.9160 H   0  0  0  0  0
    5.7326    2.6956   19.1925 H   0  0  0  0  0
  1  2  2  0  0  0
  1  3  1  0  0  0
  1  4  1  0  0  0
  3  5  1  0  0  0
  3  6  1  0  0  0
  3  7  1  0  0  0
  4  8  1  0  0  0
  4  9  1  0  0  0
  4 10  1  0  0  0
M  END
$$$$
