@<TRIPOS>MOLECULE
DMS_1_A_405
 10 9 0 0 0
SMALL
NO_CHARGES

@<TRIPOS>ATOM
      1 S           7.0060  -28.2070   21.3380 S.o    405  DMS405      0.0000
      2 O           7.7810  -27.2430   22.1910 O.2    405  DMS405      0.0000
      3 C1          5.7110  -28.8750   22.4070 C.3    405  DMS405      0.0000
      4 C2          5.9770  -27.2560   20.2140 C.3    405  DMS405      0.0000
      5 H           5.0281  -29.5133   21.8099 H      405  DMS405      0.0000
      6 H           5.1359  -28.0477   22.8711 H      405  DMS405      0.0000
      7 H           6.1765  -29.4893   23.2048 H      405  DMS405      0.0000
      8 H           5.2950  -27.9374   19.6656 H      405  DMS405      0.0000
      9 H           6.6242  -26.7272   19.4847 H      405  DMS405      0.0000
     10 H           5.3815  -26.5109   20.7803 H      405  DMS405      0.0000
@<TRIPOS>BOND
     1     1     2    2
     2     1     3    1
     3     1     4    1
     4     3     5    1
     5     3     6    1
     6     3     7    1
     7     4     8    1
     8     4     9    1
     9     4    10    1

