@<TRIPOS>MOLECULE
DMS_2_A_403
 10 9 0 0 0
SMALL
NO_CHARGES

@<TRIPOS>ATOM
      1 S          -6.6400  -22.2800    0.9770 S.o    403  DMS403      0.0000
      2 O          -7.7670  -21.7510    1.8130 O.2    403  DMS403      0.0000
      3 C1         -5.4490  -20.9540    0.6190 C.3    403  DMS403      0.0000
      4 C2         -5.5630  -23.3460    1.9650 C.3    403  DMS403      0.0000
      5 H          -4.5917  -21.3675    0.0495 H      403  DMS403      0.0000
      6 H          -5.0868  -20.5065    1.5672 H      403  DMS403      0.0000
      7 H          -5.9470  -20.1713    0.0110 H      403  DMS403      0.0000
      8 H          -4.7025  -23.6797    1.3498 H      403  DMS403      0.0000
      9 H          -6.1366  -24.2341    2.3004 H      403  DMS403      0.0000
     10 H          -5.1944  -22.7920    2.8526 H      403  DMS403      0.0000
@<TRIPOS>BOND
     1     1     2    2
     2     1     3    1
     3     1     4    1
     4     3     5    1
     5     3     6    1
     6     3     7    1
     7     4     8    1
     8     4     9    1
     9     4    10    1

