DMS_2_A_404
  -ISIS-            3D

 10  9  0  0  0  0  0  0  0  0  1 V2000
   -2.2060  -18.9010   -8.1970 S   0  0  0  0  0
   -2.1290  -20.3490   -7.8580 O   0  0  0  0  0
   -1.0590  -18.5590   -9.5700 C   0  0  0  0  0
   -3.7690  -18.7200   -9.1060 C   0  0  0  0  0
   -1.2126  -17.5220   -9.9320 H   0  0  0  0  0
   -1.2365  -19.2747  -10.3991 H   0  0  0  0  0
   -0.0163  -18.6683   -9.2081 H   0  0  0  0  0
   -3.8538  -17.6850   -9.4955 H   0  0  0  0  0
   -4.6164  -18.9200   -8.4184 H   0  0  0  0  0
   -3.8036  -19.4395   -9.9498 H   0  0  0  0  0
  1  2  2  0  0  0
  1  3  1  0  0  0
  1  4  1  0  0  0
  3  5  1  0  0  0
  3  6  1  0  0  0
  3  7  1  0  0  0
  4  8  1  0  0  0
  4  9  1  0  0  0
  4 10  1  0  0  0
M  END
$$$$
