@<TRIPOS>MOLECULE
DMS_1_A_408
 10 9 0 0 0
SMALL
NO_CHARGES

@<TRIPOS>ATOM
      1 S           7.0550  -21.4170   28.8890 S.o    408  DMS408      0.0000
      2 O           8.3490  -21.2080   29.6130 O.2    408  DMS408      0.0000
      3 C1          6.9830  -23.1010   28.2210 C.3    408  DMS408      0.0000
      4 C2          5.6520  -21.5570   30.0310 C.3    408  DMS408      0.0000
      5 H           6.0058  -23.2635   27.7223 H      408  DMS408      0.0000
      6 H           7.1129  -23.8388   29.0393 H      408  DMS408      0.0000
      7 H           7.7960  -23.2326   27.4780 H      408  DMS408      0.0000
      8 H           4.7257  -21.7715   29.4600 H      408  DMS408      0.0000
      9 H           5.5298  -20.5984   30.5752 H      408  DMS408      0.0000
     10 H           5.8387  -22.3707   30.7617 H      408  DMS408      0.0000
@<TRIPOS>BOND
     1     1     2    2
     2     1     3    1
     3     1     4    1
     4     3     5    1
     5     3     6    1
     6     3     7    1
     7     4     8    1
     8     4     9    1
     9     4    10    1

