@<TRIPOS>MOLECULE
DMS_1_A_402
 10 9 0 0 0
SMALL
NO_CHARGES

@<TRIPOS>ATOM
      1 S          20.9130  -16.1190    5.0850 S.o    402  DMS402      0.0000
      2 O          20.1660  -15.3910    4.0210 O.2    402  DMS402      0.0000
      3 C1         21.6660  -14.9310    6.2370 C.3    402  DMS402      0.0000
      4 C2         19.7460  -16.9450    6.1960 C.3    402  DMS402      0.0000
      5 H          22.1697  -15.4797    7.0588 H      402  DMS402      0.0000
      6 H          20.8830  -14.2668    6.6568 H      402  DMS402      0.0000
      7 H          22.4145  -14.3193    5.6931 H      402  DMS402      0.0000
      8 H          20.3024  -17.4374    7.0195 H      402  DMS402      0.0000
      9 H          19.1804  -17.7117    5.6280 H      402  DMS402      0.0000
     10 H          19.0373  -16.2027    6.6170 H      402  DMS402      0.0000
@<TRIPOS>BOND
     1     1     2    2
     2     1     3    1
     3     1     4    1
     4     3     5    1
     5     3     6    1
     6     3     7    1
     7     4     8    1
     8     4     9    1
     9     4    10    1

