4SO_1_A_201
  -ISIS-            3D

 19 19  0  0  0  0  0  0  0  0  1 V2000
  -46.9280  -27.4000   -1.2450 O   0  0  0  0  0
  -43.9640  -32.6140    2.5140 O   0  0  0  0  0
  -43.5830  -29.1560    2.0320 C   0  0  0  0  0
  -44.1250  -28.1010    1.3220 C   0  0  0  0  0
  -45.2320  -28.3630    0.5660 C   0  0  0  0  0
  -45.9500  -27.0170   -0.3400 S   0  0  0  0  0
  -44.7730  -26.2270   -1.1910 N   0  0  0  0  0
  -43.6500  -31.4880    2.8240 C   0  0  0  0  0
  -44.2230  -30.3960    1.9990 C   0  0  0  0  0
  -45.3510  -30.6160    1.2330 C   0  0  0  0  0
  -45.8410  -29.5660    0.5150 C   0  0  0  0  0
  -46.4840  -26.1100    0.6410 O   0  0  0  0  0
  -42.9120  -31.2120    3.8030 O   0  0  0  0  0
  -42.6706  -28.9969    2.6306 H   0  0  0  0  0
  -43.6604  -27.1021    1.3664 H   0  0  0  0  0
  -45.8511  -31.5978    1.1987 H   0  0  0  0  0
  -46.7443  -29.7191   -0.0997 H   0  0  0  0  0
  -44.6576  -25.2749   -0.8451 H   0  0  0  0  0
  -44.9971  -26.2146   -2.1849 H   0  0  0  0  0
  1  6  2  0  0  0
  2  8  2  0  0  0
  3  4  2  0  0  0
  3  9  1  0  0  0
  3 14  1  0  0  0
  4  5  1  0  0  0
  4 15  1  0  0  0
  5  6  1  0  0  0
  5 11  2  0  0  0
  6  7  1  0  0  0
  6 12  2  0  0  0
  7 18  1  0  0  0
  7 19  1  0  0  0
  8  9  1  0  0  0
  8 13  2  0  0  0
  9 10  2  0  0  0
 10 11  1  0  0  0
 10 16  1  0  0  0
 11 17  1  0  0  0
M  END
$$$$
