DMS_1_A_404
  -ISIS-            3D

 10  9  0  0  0  0  0  0  0  0  1 V2000
    6.0670    0.2500   18.1590 S   0  0  0  0  0
    7.2470    1.0190   17.5700 O   0  0  0  0  0
    6.6930   -0.5850   19.8070 C   0  0  0  0  0
    4.8850    1.5670   18.9780 C   0  0  0  0  0
    5.8262   -1.0387   20.3297 H   0  0  0  0  0
    7.1659    0.1876   20.4473 H   0  0  0  0  0
    7.4330   -1.3697   19.5478 H   0  0  0  0  0
    4.0851    1.0342   19.5319 H   0  0  0  0  0
    4.4400    2.1912   18.1762 H   0  0  0  0  0
    5.4748    2.2014   19.6711 H   0  0  0  0  0
  1  2  2  0  0  0
  1  3  1  0  0  0
  1  4  1  0  0  0
  3  5  1  0  0  0
  3  6  1  0  0  0
  3  7  1  0  0  0
  4  8  1  0  0  0
  4  9  1  0  0  0
  4 10  1  0  0  0
M  END
$$$$
