@<TRIPOS>MOLECULE
DMS_2_A_401
 10 9 0 0 0
SMALL
NO_CHARGES

@<TRIPOS>ATOM
      1 S          -6.9990  -28.1370  -21.4680 S.o    401  DMS401      0.0000
      2 O          -7.7410  -27.1310  -22.3270 O.2    401  DMS401      0.0000
      3 C1         -5.4430  -28.6420  -22.5300 C.3    401  DMS401      0.0000
      4 C2         -6.0530  -27.1420  -20.1010 C.3    401  DMS401      0.0000
      5 H          -4.7746  -29.2722  -21.9083 H      401  DMS401      0.0000
      6 H          -4.9115  -27.7242  -22.8552 H      401  DMS401      0.0000
      7 H          -5.7886  -29.2149  -23.4148 H      401  DMS401      0.0000
      8 H          -5.3713  -27.8316  -19.5623 H      401  DMS401      0.0000
      9 H          -6.7946  -26.7156  -19.3948 H      401  DMS401      0.0000
     10 H          -5.4728  -26.3266  -20.5796 H      401  DMS401      0.0000
@<TRIPOS>BOND
     1     1     2    2
     2     1     3    1
     3     1     4    1
     4     3     5    1
     5     3     6    1
     6     3     7    1
     7     4     8    1
     8     4     9    1
     9     4    10    1

