CY6_1_A_1145
  -ISIS-            3D

 88 89  0  0  0  0  0  0  0  0  1 V2000
   73.3760   47.7140   18.4330 C   0  0  0  0  0
   72.8930   46.2990   18.6050 C   0  0  0  0  0
   71.9590   45.8240   17.7670 O   0  0  0  0  0
   71.7080   44.4820   18.1770 N   0  0  0  0  0
   72.4860   44.2900   19.1810 C   0  0  0  0  0
   73.3040   45.4570   19.5210 C   0  0  0  0  0
   72.5940   43.0470   19.9540 C   0  0  0  0  0
   73.0910   42.0800   19.3140 O   0  0  0  0  0
   72.2270   42.9390   21.2720 N   0  0  0  0  0
   72.3260   41.7740   22.1820 C   0  0  0  0  0
   72.1330   42.1430   23.7530 C   0  0  0  0  0
   72.2900   40.9620   24.7780 C   0  0  0  0  0
   70.7360   42.8150   24.0190 C   0  0  0  0  0
   71.3590   40.6490   21.7020 C   0  0  0  0  0
   70.1250   40.8390   21.5470 O   0  0  0  0  0
   72.0130   39.2830   21.4870 C   0  0  0  0  0
   71.1410   38.0200   21.0920 C   0  0  0  0  0
   72.1390   36.8100   20.9160 C   0  0  0  0  0
   73.0630   37.0400   19.7340 C   0  0  0  0  0
   74.1020   36.0980   19.3790 C   0  0  0  0  0
   74.6740   36.1150   18.0000 C   0  0  0  0  0
   74.6400   35.1100   20.3920 C   0  0  0  0  0
   70.2140   37.7990   22.3190 C   0  0  0  0  0
   70.7080   38.0510   23.4970 O   0  0  0  0  0
   68.9190   37.3770   22.1920 N   0  0  0  0  0
   68.1000   37.2110   23.3980 C   0  0  0  0  0
   67.5730   35.8690   23.8530 C   0  0  0  0  0
   68.8440   35.0260   24.2700 C   0  0  0  0  0
   68.5470   33.6490   24.9040 C   0  0  0  0  0
   67.3640   33.2810   25.0880 O   0  0  0  0  0
   69.5250   32.7600   25.3300 O   0  0  0  0  0
   70.3680   33.0850   26.4740 C   0  0  0  0  0
   69.8230   32.5050   27.8090 C   0  0  0  0  0
   66.8980   38.2280   23.3800 C   0  0  0  0  0
   66.9220   39.3590   24.4470 C   0  0  0  0  0
   67.1800   39.0330   25.9450 C   0  0  0  0  0
   66.7700   40.3700   26.6240 C   0  0  0  0  0
   65.6080   40.7100   25.7960 N   0  0  0  0  0
   65.6540   40.1510   24.5640 C   0  0  0  0  0
   64.8130   40.2570   23.6380 O   0  0  0  0  0
   74.1466   47.9816   19.1893 H   0  0  0  0  0
   72.5368   48.4367   18.5384 H   0  0  0  0  0
   73.8275   47.8611   17.4269 H   0  0  0  0  0
   74.0442   45.5667   20.3198 H   0  0  0  0  0
   71.8253   43.7957   21.6737 H   0  0  0  0  0
   73.3629   41.3669   22.0980 H   0  0  0  0  0
   72.9206   42.8978   23.9995 H   0  0  0  0  0
   72.3526   41.3402   25.8229 H   0  0  0  0  0
   73.2168   40.3786   24.5820 H   0  0  0  0  0
   71.4314   40.2626   24.7360 H   0  0  0  0  0
   70.6413   43.1356   25.0806 H   0  0  0  0  0
   69.8953   42.1169   23.8131 H   0  0  0  0  0
   70.5781   43.7220   23.3968 H   0  0  0  0  0
   72.6376   39.0397   22.3764 H   0  0  0  0  0
   72.7349   39.4672   20.6627 H   0  0  0  0  0
   70.5523   38.2022   20.1658 H   0  0  0  0  0
   71.5593   35.8727   20.7465 H   0  0  0  0  0
   72.7338   36.6685   21.8475 H   0  0  0  0  0
   73.6190   37.9862   19.9110 H   0  0  0  0  0
   72.4255   37.2562   18.8421 H   0  0  0  0  0
   73.3189   35.3361   19.0553 H   0  0  0  0  0
   75.0644   35.1230   17.6769 H   0  0  0  0  0
   75.5320   36.8220   17.9472 H   0  0  0  0  0
   73.9460   36.4454   17.2242 H   0  0  0  0  0
   75.1489   34.2423   19.9142 H   0  0  0  0  0
   73.8619   34.6918   21.0696 H   0  0  0  0  0
   75.3988   35.6003   21.0421 H   0  0  0  0  0
   70.3394   36.6890   22.3825 H   0  0  0  0  0
   70.3215   38.8733   23.7686 H   0  0  0  0  0
   68.5761   37.2212   21.2319 H   0  0  0  0  0
   68.6966   37.5560   24.2737 H   0  0  0  0  0
   67.0139   35.3602   23.0356 H   0  0  0  0  0
   66.8976   35.9726   24.7331 H   0  0  0  0  0
   69.4592   35.6066   24.9921 H   0  0  0  0  0
   69.4825   34.8522   23.3761 H   0  0  0  0  0
   70.4865   34.1837   26.5776 H   0  0  0  0  0
   71.3860   32.6782   26.2968 H   0  0  0  0  0
   70.4949   32.7481   28.6607 H   0  0  0  0  0
   69.7301   31.3984   27.7600 H   0  0  0  0  0
   68.8181   32.9161   28.0474 H   0  0  0  0  0
   65.9427   37.6663   23.4948 H   0  0  0  0  0
   66.8366   38.6969   22.3705 H   0  0  0  0  0
   67.7209   40.0748   24.1272 H   0  0  0  0  0
   68.2413   38.7749   26.1556 H   0  0  0  0  0
   66.5293   38.1942   26.2831 H   0  0  0  0  0
   67.5768   41.1336   26.5483 H   0  0  0  0  0
   66.5100   40.2173   27.6950 H   0  0  0  0  0
   64.8271   41.3090   26.0927 H   0  0  0  0  0
  1  2  1  0  0  0
  1 41  1  0  0  0
  1 42  1  0  0  0
  1 43  1  0  0  0
  2  3  1  0  0  0
  2  6  2  0  0  0
  3  4  1  0  0  0
  4  5  2  0  0  0
  5  6  1  0  0  0
  5  7  1  0  0  0
  6 44  1  0  0  0
  7  8  2  0  0  0
  7  9  1  0  0  0
  9 10  1  0  0  0
  9 45  1  0  0  0
 10 11  1  0  0  0
 10 14  1  0  0  0
 10 46  1  0  0  0
 11 12  1  0  0  0
 11 13  1  0  0  0
 11 47  1  0  0  0
 12 48  1  0  0  0
 12 49  1  0  0  0
 12 50  1  0  0  0
 13 51  1  0  0  0
 13 52  1  0  0  0
 13 53  1  0  0  0
 14 15  2  0  0  0
 14 16  1  0  0  0
 16 17  1  0  0  0
 16 54  1  0  0  0
 16 55  1  0  0  0
 17 18  1  0  0  0
 17 23  1  0  0  0
 17 56  1  0  0  0
 18 19  1  0  0  0
 18 57  1  0  0  0
 18 58  1  0  0  0
 19 20  1  0  0  0
 19 59  1  0  0  0
 19 60  1  0  0  0
 20 21  1  0  0  0
 20 22  1  0  0  0
 20 61  1  0  0  0
 21 62  1  0  0  0
 21 63  1  0  0  0
 21 64  1  0  0  0
 22 65  1  0  0  0
 22 66  1  0  0  0
 22 67  1  0  0  0
 23 24  1  0  0  0
 23 25  1  0  0  0
 23 68  1  0  0  0
 24 69  1  0  0  0
 25 26  1  0  0  0
 25 70  1  0  0  0
 26 27  1  0  0  0
 26 34  1  0  0  0
 26 71  1  0  0  0
 27 28  1  0  0  0
 27 72  1  0  0  0
 27 73  1  0  0  0
 28 29  1  0  0  0
 28 74  1  0  0  0
 28 75  1  0  0  0
 29 30  2  0  0  0
 29 31  1  0  0  0
 31 32  1  0  0  0
 32 33  1  0  0  0
 32 76  1  0  0  0
 32 77  1  0  0  0
 33 78  1  0  0  0
 33 79  1  0  0  0
 33 80  1  0  0  0
 34 35  1  0  0  0
 34 81  1  0  0  0
 34 82  1  0  0  0
 35 36  1  0  0  0
 35 39  1  0  0  0
 35 83  1  0  0  0
 36 37  1  0  0  0
 36 84  1  0  0  0
 36 85  1  0  0  0
 37 38  1  0  0  0
 37 86  1  0  0  0
 37 87  1  0  0  0
 38 39  1  0  0  0
 38 88  1  0  0  0
 39 40  2  0  0  0
M  END
$$$$
