CY6_2_A_1145
  -ISIS-            3D

 88 89  0  0  0  0  0  0  0  0  1 V2000
   20.3600   47.7140   33.5740 C   0  0  0  0  0
   20.8430   46.2990   33.4020 C   0  0  0  0  0
   21.7770   45.8240   34.2400 O   0  0  0  0  0
   22.0280   44.4820   33.8300 N   0  0  0  0  0
   21.2500   44.2900   32.8260 C   0  0  0  0  0
   20.4320   45.4570   32.4860 C   0  0  0  0  0
   21.1420   43.0470   32.0530 C   0  0  0  0  0
   20.6450   42.0800   32.6930 O   0  0  0  0  0
   21.5090   42.9390   30.7350 N   0  0  0  0  0
   21.4100   41.7740   29.8250 C   0  0  0  0  0
   21.6030   42.1430   28.2540 C   0  0  0  0  0
   21.4460   40.9620   27.2290 C   0  0  0  0  0
   23.0000   42.8150   27.9880 C   0  0  0  0  0
   22.3770   40.6490   30.3050 C   0  0  0  0  0
   23.6110   40.8390   30.4600 O   0  0  0  0  0
   21.7230   39.2830   30.5200 C   0  0  0  0  0
   22.5950   38.0200   30.9150 C   0  0  0  0  0
   21.5970   36.8100   31.0910 C   0  0  0  0  0
   20.6730   37.0400   32.2730 C   0  0  0  0  0
   19.6340   36.0980   32.6280 C   0  0  0  0  0
   19.0620   36.1150   34.0070 C   0  0  0  0  0
   19.0960   35.1100   31.6150 C   0  0  0  0  0
   23.5220   37.7990   29.6880 C   0  0  0  0  0
   23.0280   38.0510   28.5100 O   0  0  0  0  0
   24.8170   37.3770   29.8150 N   0  0  0  0  0
   25.6360   37.2110   28.6090 C   0  0  0  0  0
   26.1630   35.8690   28.1540 C   0  0  0  0  0
   24.8920   35.0260   27.7370 C   0  0  0  0  0
   25.1890   33.6490   27.1030 C   0  0  0  0  0
   26.3720   33.2810   26.9190 O   0  0  0  0  0
   24.2110   32.7600   26.6770 O   0  0  0  0  0
   23.3680   33.0850   25.5330 C   0  0  0  0  0
   23.9130   32.5050   24.1980 C   0  0  0  0  0
   26.8380   38.2280   28.6270 C   0  0  0  0  0
   26.8140   39.3590   27.5600 C   0  0  0  0  0
   26.5560   39.0330   26.0620 C   0  0  0  0  0
   26.9660   40.3700   25.3830 C   0  0  0  0  0
   28.1280   40.7100   26.2110 N   0  0  0  0  0
   28.0820   40.1510   27.4430 C   0  0  0  0  0
   28.9230   40.2570   28.3690 O   0  0  0  0  0
   19.5894   47.9816   32.8177 H   0  0  0  0  0
   21.1992   48.4367   33.4686 H   0  0  0  0  0
   19.9085   47.8611   34.5801 H   0  0  0  0  0
   19.6919   45.5667   31.6872 H   0  0  0  0  0
   21.9107   43.7956   30.3333 H   0  0  0  0  0
   20.3731   41.3669   29.9090 H   0  0  0  0  0
   20.8154   42.8978   28.0074 H   0  0  0  0  0
   21.3826   41.3402   26.1841 H   0  0  0  0  0
   20.5196   40.3780   27.4255 H   0  0  0  0  0
   22.3050   40.2630   27.2705 H   0  0  0  0  0
   23.0955   43.1339   26.9259 H   0  0  0  0  0
   23.8408   42.1176   28.1957 H   0  0  0  0  0
   23.1570   43.7231   28.6088 H   0  0  0  0  0
   21.0983   39.0397   29.6306 H   0  0  0  0  0
   21.0011   39.4672   31.3444 H   0  0  0  0  0
   23.1837   38.2022   31.8412 H   0  0  0  0  0
   22.1767   35.8727   31.2605 H   0  0  0  0  0
   21.0022   36.6685   30.1595 H   0  0  0  0  0
   20.1170   37.9862   32.0959 H   0  0  0  0  0
   21.3105   37.2562   33.1648 H   0  0  0  0  0
   20.4172   35.3361   32.9516 H   0  0  0  0  0
   18.6715   35.1230   34.3300 H   0  0  0  0  0
   18.2041   36.8221   34.0599 H   0  0  0  0  0
   19.7900   36.4453   34.7828 H   0  0  0  0  0
   18.5890   34.2412   32.0929 H   0  0  0  0  0
   19.8738   34.6935   30.9361 H   0  0  0  0  0
   18.3356   35.5997   30.9663 H   0  0  0  0  0
   23.3966   36.6890   29.6245 H   0  0  0  0  0
   23.4145   38.8733   28.2384 H   0  0  0  0  0
   25.1599   37.2212   30.7750 H   0  0  0  0  0
   25.0394   37.5560   27.7333 H   0  0  0  0  0
   26.7221   35.3602   28.9714 H   0  0  0  0  0
   26.8384   35.9726   27.2739 H   0  0  0  0  0
   24.2768   35.6066   27.0149 H   0  0  0  0  0
   24.2535   34.8522   28.6309 H   0  0  0  0  0
   23.2495   34.1837   25.4294 H   0  0  0  0  0
   22.3500   32.6782   25.7102 H   0  0  0  0  0
   23.2411   32.7480   23.3463 H   0  0  0  0  0
   24.0060   31.3984   24.2470 H   0  0  0  0  0
   24.9178   32.9162   23.9596 H   0  0  0  0  0
   27.7933   37.6663   28.5122 H   0  0  0  0  0
   26.8994   38.6969   29.6365 H   0  0  0  0  0
   26.0151   40.0748   27.8798 H   0  0  0  0  0
   25.4947   38.7749   25.8514 H   0  0  0  0  0
   27.2067   38.1942   25.7239 H   0  0  0  0  0
   26.1592   41.1336   25.4587 H   0  0  0  0  0
   27.2260   40.2173   24.3120 H   0  0  0  0  0
   28.9089   41.3090   25.9143 H   0  0  0  0  0
  1  2  1  0  0  0
  1 41  1  0  0  0
  1 42  1  0  0  0
  1 43  1  0  0  0
  2  3  1  0  0  0
  2  6  2  0  0  0
  3  4  1  0  0  0
  4  5  2  0  0  0
  5  6  1  0  0  0
  5  7  1  0  0  0
  6 44  1  0  0  0
  7  8  2  0  0  0
  7  9  1  0  0  0
  9 10  1  0  0  0
  9 45  1  0  0  0
 10 11  1  0  0  0
 10 14  1  0  0  0
 10 46  1  0  0  0
 11 12  1  0  0  0
 11 13  1  0  0  0
 11 47  1  0  0  0
 12 48  1  0  0  0
 12 49  1  0  0  0
 12 50  1  0  0  0
 13 51  1  0  0  0
 13 52  1  0  0  0
 13 53  1  0  0  0
 14 15  2  0  0  0
 14 16  1  0  0  0
 16 17  1  0  0  0
 16 54  1  0  0  0
 16 55  1  0  0  0
 17 18  1  0  0  0
 17 23  1  0  0  0
 17 56  1  0  0  0
 18 19  1  0  0  0
 18 57  1  0  0  0
 18 58  1  0  0  0
 19 20  1  0  0  0
 19 59  1  0  0  0
 19 60  1  0  0  0
 20 21  1  0  0  0
 20 22  1  0  0  0
 20 61  1  0  0  0
 21 62  1  0  0  0
 21 63  1  0  0  0
 21 64  1  0  0  0
 22 65  1  0  0  0
 22 66  1  0  0  0
 22 67  1  0  0  0
 23 24  1  0  0  0
 23 25  1  0  0  0
 23 68  1  0  0  0
 24 69  1  0  0  0
 25 26  1  0  0  0
 25 70  1  0  0  0
 26 27  1  0  0  0
 26 34  1  0  0  0
 26 71  1  0  0  0
 27 28  1  0  0  0
 27 72  1  0  0  0
 27 73  1  0  0  0
 28 29  1  0  0  0
 28 74  1  0  0  0
 28 75  1  0  0  0
 29 30  2  0  0  0
 29 31  1  0  0  0
 31 32  1  0  0  0
 32 33  1  0  0  0
 32 76  1  0  0  0
 32 77  1  0  0  0
 33 78  1  0  0  0
 33 79  1  0  0  0
 33 80  1  0  0  0
 34 35  1  0  0  0
 34 81  1  0  0  0
 34 82  1  0  0  0
 35 36  1  0  0  0
 35 39  1  0  0  0
 35 83  1  0  0  0
 36 37  1  0  0  0
 36 84  1  0  0  0
 36 85  1  0  0  0
 37 38  1  0  0  0
 37 86  1  0  0  0
 37 87  1  0  0  0
 38 39  1  0  0  0
 38 88  1  0  0  0
 39 40  2  0  0  0
M  END
$$$$
