DMS_1_B_701
  -ISIS-            3D

 10  9  0  0  0  0  0  0  0  0  1 V2000
   20.5510   -9.6520   -9.1500 S   0  0  0  0  0
   20.4640  -10.6420   -8.0240 O   0  0  0  0  0
   21.5070   -8.2820   -8.5500 C   0  0  0  0  0
   21.7560  -10.3110  -10.2750 C   0  0  0  0  0
   21.7313   -7.5855   -9.3837 H   0  0  0  0  0
   22.4562   -8.6396   -8.1011 H   0  0  0  0  0
   20.9245   -7.7394   -7.7774 H   0  0  0  0  0
   21.9787   -9.5665  -11.0666 H   0  0  0  0  0
   21.3509  -11.2278  -10.7503 H   0  0  0  0  0
   22.6905  -10.5673   -9.7350 H   0  0  0  0  0
  1  2  2  0  0  0
  1  3  1  0  0  0
  1  4  1  0  0  0
  3  5  1  0  0  0
  3  6  1  0  0  0
  3  7  1  0  0  0
  4  8  1  0  0  0
  4  9  1  0  0  0
  4 10  1  0  0  0
M  END
$$$$
