@<TRIPOS>MOLECULE
DMS_1_B_701
 10 9 0 0 0
SMALL
NO_CHARGES

@<TRIPOS>ATOM
      1 S          20.5510   -9.6520   -9.1500 S.o    701  DMS701      0.0000
      2 O          20.4640  -10.6420   -8.0240 O.2    701  DMS701      0.0000
      3 C1         21.5070   -8.2820   -8.5500 C.3    701  DMS701      0.0000
      4 C2         21.7560  -10.3110  -10.2750 C.3    701  DMS701      0.0000
      5 H          21.7313   -7.5855   -9.3837 H      701  DMS701      0.0000
      6 H          22.4562   -8.6396   -8.1011 H      701  DMS701      0.0000
      7 H          20.9245   -7.7394   -7.7774 H      701  DMS701      0.0000
      8 H          21.9787   -9.5665  -11.0666 H      701  DMS701      0.0000
      9 H          21.3509  -11.2278  -10.7503 H      701  DMS701      0.0000
     10 H          22.6905  -10.5673   -9.7350 H      701  DMS701      0.0000
@<TRIPOS>BOND
     1     1     2    2
     2     1     3    1
     3     1     4    1
     4     3     5    1
     5     3     6    1
     6     3     7    1
     7     4     8    1
     8     4     9    1
     9     4    10    1

