@<TRIPOS>MOLECULE
DMS_1_B_702
 10 9 0 0 0
SMALL
NO_CHARGES

@<TRIPOS>ATOM
      1 S          16.8450    4.4610  -25.0450 S.o    702  DMS702      0.0000
      2 O          16.1500    3.6050  -26.0740 O.2    702  DMS702      0.0000
      3 C1         18.5700    4.4460  -25.4600 C.3    702  DMS702      0.0000
      4 C2         16.5070    6.1510  -25.4790 C.3    702  DMS702      0.0000
      5 H          19.1174    5.1688  -24.8211 H      702  DMS702      0.0000
      6 H          18.7124    4.7143  -26.5269 H      702  DMS702      0.0000
      7 H          18.9812    3.4307  -25.2855 H      702  DMS702      0.0000
      8 H          17.1057    6.8309  -24.8390 H      702  DMS702      0.0000
      9 H          15.4302    6.3632  -25.3183 H      702  DMS702      0.0000
     10 H          16.7554    6.3323  -26.5449 H      702  DMS702      0.0000
@<TRIPOS>BOND
     1     1     2    2
     2     1     3    1
     3     1     4    1
     4     3     5    1
     5     3     6    1
     6     3     7    1
     7     4     8    1
     8     4     9    1
     9     4    10    1

