@<TRIPOS>MOLECULE
DMS_1_B_703
 10 9 0 0 0
SMALL
NO_CHARGES

@<TRIPOS>ATOM
      1 S          24.8490   -9.2110  -37.7320 S.o    703  DMS703      0.0000
      2 O          23.6510   -9.2530  -38.6300 O.2    703  DMS703      0.0000
      3 C1         25.6140  -10.8100  -37.8870 C.3    703  DMS703      0.0000
      4 C2         26.0720   -8.2400  -38.5950 C.3    703  DMS703      0.0000
      5 H          26.5919  -10.8101  -37.3631 H      703  DMS703      0.0000
      6 H          25.7678  -11.0619  -38.9561 H      703  DMS703      0.0000
      7 H          24.9590  -11.5765  -37.4246 H      703  DMS703      0.0000
      8 H          27.0398   -8.2909  -38.0551 H      703  DMS703      0.0000
      9 H          25.7383   -7.1830  -38.6360 H      703  DMS703      0.0000
     10 H          26.2049   -8.6188  -39.6289 H      703  DMS703      0.0000
@<TRIPOS>BOND
     1     1     2    2
     2     1     3    1
     3     1     4    1
     4     3     5    1
     5     3     6    1
     6     3     7    1
     7     4     8    1
     8     4     9    1
     9     4    10    1

