@<TRIPOS>MOLECULE
BO3_1_A_403
 7 6 0 0 0
SMALL
NO_CHARGES

@<TRIPOS>ATOM
      1 B           7.2110    9.2120    6.5480 Du     403  BO3403      0.0000
      2 O1          6.2780   10.1330    6.1880 O.3    403  BO3403      0.0000
      3 O2          8.5270    9.5480    6.5260 O.3    403  BO3403      0.0000
      4 O3          6.8340    7.9620    6.9310 O.3    403  BO3403      0.0000
      5 H           5.3766    9.8473    6.2214 H      403  BO3403      0.0000
      6 H           9.0797    8.8282    6.7971 H      403  BO3403      0.0000
      7 H           5.9027    7.7987    6.9236 H      403  BO3403      0.0000
@<TRIPOS>BOND
     1     1     2    1
     2     1     3    1
     3     1     4    1
     4     2     5    1
     5     3     6    1
     6     4     7    1

