@<TRIPOS>MOLECULE
BO3_1_A_404
 7 6 0 0 0
SMALL
NO_CHARGES

@<TRIPOS>ATOM
      1 B           9.0820  -18.0100   28.2450 Du     404  BO3404      0.0000
      2 O1          8.2100  -17.0770   29.0830 O.3    404  BO3404      0.0000
      3 O2          9.3250  -19.4380   28.7300 O.3    404  BO3404      0.0000
      4 O3          9.9670  -17.4280   27.1460 O.3    404  BO3404      0.0000
      5 H           7.7788  -17.5270   29.7960 H      404  BO3404      0.0000
      6 H           8.7870  -19.6566   29.4775 H      404  BO3404      0.0000
      7 H          10.5259  -18.1071   26.7932 H      404  BO3404      0.0000
@<TRIPOS>BOND
     1     1     2    1
     2     1     3    1
     3     1     4    1
     4     2     5    1
     5     3     6    1
     6     4     7    1

