@<TRIPOS>MOLECULE
EDO_3_A_407
 10 9 0 0 0
SMALL
NO_CHARGES

@<TRIPOS>ATOM
      1 C1         96.4380  -84.4960  -35.2420 C.3    407  EDO407      0.0000
      2 O1         95.5540  -85.4700  -35.8100 O.3    407  EDO407      0.0000
      3 C2         97.4100  -84.0750  -36.3320 C.3    407  EDO407      0.0000
      4 O2         96.8070  -83.0900  -37.1660 O.3    407  EDO407      0.0000
      5 H          96.9840  -84.9571  -34.3922 H      407  EDO407      0.0000
      6 H          95.8693  -83.6269  -34.8503 H      407  EDO407      0.0000
      7 H          94.8138  -85.5733  -35.2268 H      407  EDO407      0.0000
      8 H          97.7344  -84.9489  -36.9355 H      407  EDO407      0.0000
      9 H          98.3218  -83.6383  -35.8715 H      407  EDO407      0.0000
     10 H          97.3633  -82.9594  -37.9225 H      407  EDO407      0.0000
@<TRIPOS>BOND
     1     1     2    1
     2     1     3    1
     3     1     5    1
     4     1     6    1
     5     2     7    1
     6     3     4    1
     7     3     8    1
     8     3     9    1
     9     4    10    1

