@<TRIPOS>MOLECULE
EDO_1_A_407
 10 9 0 0 0
SMALL
NO_CHARGES

@<TRIPOS>ATOM
      1 C1        100.4350   -4.9670  -35.2420 C.3    407  EDO407      0.0000
      2 O1        101.7200   -5.2450  -35.8100 O.3    407  EDO407      0.0000
      3 C2         99.5840   -4.3350  -36.3320 C.3    407  EDO407      0.0000
      4 O2         99.0330   -5.3500  -37.1660 O.3    407  EDO407      0.0000
      5 H         100.5702   -4.2600  -34.3974 H      407  EDO407      0.0000
      6 H          99.9760   -5.8915  -34.8348 H      407  EDO407      0.0000
      7 H         101.5836   -5.8807  -36.5017 H      407  EDO407      0.0000
      8 H         100.1730   -3.6147  -36.9378 H      407  EDO407      0.0000
      9 H          98.7507   -3.7658  -35.8669 H      407  EDO407      0.0000
     10 H          98.5011   -4.9329  -37.8307 H      407  EDO407      0.0000
@<TRIPOS>BOND
     1     1     2    1
     2     1     3    1
     3     1     5    1
     4     1     6    1
     5     2     7    1
     6     3     4    1
     7     3     8    1
     8     3     9    1
     9     4    10    1

