@<TRIPOS>MOLECULE
EDO_3_A_403
 10 9 0 0 0
SMALL
NO_CHARGES

@<TRIPOS>ATOM
      1 C1         93.6770  -34.7320    0.1420 C.3    403  EDO403      0.0000
      2 O1         94.1200  -33.7740    1.1180 O.3    403  EDO403      0.0000
      3 C2         94.6700  -34.8770   -1.0110 C.3    403  EDO403      0.0000
      4 O2         95.9820  -35.1930   -0.5240 O.3    403  EDO403      0.0000
      5 H          92.6857  -34.4157   -0.2434 H      403  EDO403      0.0000
      6 H          93.5287  -35.7116    0.6434 H      403  EDO403      0.0000
      7 H          95.0618  -33.8804    1.1893 H      403  EDO403      0.0000
      8 H          94.7270  -33.9248   -1.5787 H      403  EDO403      0.0000
      9 H          94.3306  -35.6566   -1.7256 H      403  EDO403      0.0000
     10 H          96.0487  -36.1340   -0.4300 H      403  EDO403      0.0000
@<TRIPOS>BOND
     1     1     2    1
     2     1     3    1
     3     1     5    1
     4     1     6    1
     5     2     7    1
     6     3     4    1
     7     3     8    1
     8     3     9    1
     9     4    10    1

