EDO_1_A_403
  -ISIS-            3D

 10  9  0  0  0  0  0  0  0  0  1 V2000
   58.7190  -32.2400    0.1420 C   0  0  0  0  0
   57.6670  -32.3350    1.1180 O   0  0  0  0  0
   58.3480  -31.3080   -1.0110 C   0  0  0  0  0
   57.9660  -30.0130   -0.5240 O   0  0  0  0  0
   58.9427  -33.2567   -0.2422 H   0  0  0  0  0
   59.6411  -31.8763    0.6428 H   0  0  0  0  0
   57.3688  -31.4455    1.2695 H   0  0  0  0  0
   57.5061  -31.7433   -1.5904 H   0  0  0  0  0
   59.2075  -31.2040   -1.7067 H   0  0  0  0  0
   57.7497  -29.4685   -1.2691 H   0  0  0  0  0
  1  2  1  0  0  0
  1  3  1  0  0  0
  1  5  1  0  0  0
  1  6  1  0  0  0
  2  7  1  0  0  0
  3  4  1  0  0  0
  3  8  1  0  0  0
  3  9  1  0  0  0
  4 10  1  0  0  0
M  END
$$$$
