EDO_2_B_411
  -ISIS-            3D

 10  9  0  0  0  0  0  0  0  0  1 V2000
   69.4270  -41.7620   16.2590 C   0  0  0  0  0
   68.6300  -40.9520   17.1310 O   0  0  0  0  0
   69.2110  -43.2380   16.5760 C   0  0  0  0  0
   69.3060  -44.0050   15.3670 O   0  0  0  0  0
   70.4987  -41.4912   16.3611 H   0  0  0  0  0
   69.1294  -41.5488   15.2100 H   0  0  0  0  0
   68.7162  -40.0472   16.8603 H   0  0  0  0  0
   68.1961  -43.3943   16.9973 H   0  0  0  0  0
   69.9378  -43.6032   17.3313 H   0  0  0  0  0
   70.2230  -44.1584   15.1810 H   0  0  0  0  0
  1  2  1  0  0  0
  1  3  1  0  0  0
  1  5  1  0  0  0
  1  6  1  0  0  0
  2  7  1  0  0  0
  3  4  1  0  0  0
  3  8  1  0  0  0
  3  9  1  0  0  0
  4 10  1  0  0  0
M  END
$$$$
