EDO_2_A_409
  -ISIS-            3D

 10  9  0  0  0  0  0  0  0  0  1 V2000
   46.2750  -65.2710  -19.0330 C   0  0  0  0  0
   45.8930  -64.9320  -20.3720 O   0  0  0  0  0
   46.3630  -63.9980  -18.1950 C   0  0  0  0  0
   47.1090  -64.2260  -16.9880 O   0  0  0  0  0
   47.2508  -65.8014  -19.0474 H   0  0  0  0  0
   45.5279  -65.9694  -18.6033 H   0  0  0  0  0
   46.6775  -64.7345  -20.8667 H   0  0  0  0  0
   45.3449  -63.6313  -17.9455 H   0  0  0  0  0
   46.8689  -63.1964  -18.7744 H   0  0  0  0  0
   47.0938  -63.4288  -16.4751 H   0  0  0  0  0
  1  2  1  0  0  0
  1  3  1  0  0  0
  1  5  1  0  0  0
  1  6  1  0  0  0
  2  7  1  0  0  0
  3  4  1  0  0  0
  3  8  1  0  0  0
  3  9  1  0  0  0
  4 10  1  0  0  0
M  END
$$$$
