@<TRIPOS>MOLECULE
EDO_2_A_408
 10 9 0 0 0
SMALL
NO_CHARGES

@<TRIPOS>ATOM
      1 C1         62.6950  -59.0640  -22.7060 C.3    408  EDO408      0.0000
      2 O1         61.9410  -57.9600  -23.2460 O.3    408  EDO408      0.0000
      3 C2         62.8990  -58.9170  -21.2020 C.3    408  EDO408      0.0000
      4 O2         64.2930  -59.0240  -20.8450 O.3    408  EDO408      0.0000
      5 H          63.6737  -59.0960  -23.2277 H      408  EDO408      0.0000
      6 H          62.1841  -60.0210  -22.9433 H      408  EDO408      0.0000
      7 H          61.0200  -58.1240  -23.0921 H      408  EDO408      0.0000
      8 H          62.3344  -59.7049  -20.6618 H      408  EDO408      0.0000
      9 H          62.5053  -57.9440  -20.8396 H      408  EDO408      0.0000
     10 H          64.7240  -58.2192  -21.1019 H      408  EDO408      0.0000
@<TRIPOS>BOND
     1     1     2    1
     2     1     3    1
     3     1     5    1
     4     1     6    1
     5     2     7    1
     6     3     4    1
     7     3     8    1
     8     3     9    1
     9     4    10    1

