@<TRIPOS>MOLECULE
EDO_1_A_405
 10 9 0 0 0
SMALL
NO_CHARGES

@<TRIPOS>ATOM
      1 C1         79.1620  -29.6550  -29.3070 C.3    405  EDO405      0.0000
      2 O1         77.9760  -30.0050  -30.0310 O.3    405  EDO405      0.0000
      3 C2         79.3270  -30.5680  -28.0940 C.3    405  EDO405      0.0000
      4 O2         79.3290  -31.9390  -28.5140 O.3    405  EDO405      0.0000
      5 H          79.0934  -28.5939  -28.9904 H      405  EDO405      0.0000
      6 H          80.0408  -29.7402  -29.9804 H      405  EDO405      0.0000
      7 H          77.9895  -30.9515  -30.1171 H      405  EDO405      0.0000
      8 H          78.4971  -30.4024  -27.3746 H      405  EDO405      0.0000
      9 H          80.2767  -30.3370  -27.5668 H      405  EDO405      0.0000
     10 H          79.4357  -32.4834  -27.7455 H      405  EDO405      0.0000
@<TRIPOS>BOND
     1     1     2    1
     2     1     3    1
     3     1     5    1
     4     1     6    1
     5     2     7    1
     6     3     4    1
     7     3     8    1
     8     3     9    1
     9     4    10    1

