@<TRIPOS>MOLECULE
EDO_1_B_404
 10 9 0 0 0
SMALL
NO_CHARGES

@<TRIPOS>ATOM
      1 C1         63.5830   -9.3530   32.0610 C.3    404  EDO404      0.0000
      2 O1         63.9050   -9.2210   30.6730 O.3    404  EDO404      0.0000
      3 C2         62.1560   -9.8760   32.2210 C.3    404  EDO404      0.0000
      4 O2         61.2270   -9.1350   31.4170 O.3    404  EDO404      0.0000
      5 H          63.6792   -8.3622   32.5540 H      404  EDO404      0.0000
      6 H          64.3033  -10.0407   32.5522 H      404  EDO404      0.0000
      7 H          64.7929   -8.8966   30.6044 H      404  EDO404      0.0000
      8 H          61.8392   -9.8224   33.2829 H      404  EDO404      0.0000
      9 H          62.1092  -10.9454   31.9247 H      404  EDO404      0.0000
     10 H          61.6554   -9.0002   30.5791 H      404  EDO404      0.0000
@<TRIPOS>BOND
     1     1     2    1
     2     1     3    1
     3     1     5    1
     4     1     6    1
     5     2     7    1
     6     3     4    1
     7     3     8    1
     8     3     9    1
     9     4    10    1

