@<TRIPOS>MOLECULE
EDO_1_A_403
 10 9 0 0 0
SMALL
NO_CHARGES

@<TRIPOS>ATOM
      1 C1         58.7190  -32.2400    0.1420 C.3    403  EDO403      0.0000
      2 O1         57.6670  -32.3350    1.1180 O.3    403  EDO403      0.0000
      3 C2         58.3480  -31.3080   -1.0110 C.3    403  EDO403      0.0000
      4 O2         57.9660  -30.0130   -0.5240 O.3    403  EDO403      0.0000
      5 H          58.9427  -33.2567   -0.2422 H      403  EDO403      0.0000
      6 H          59.6411  -31.8763    0.6428 H      403  EDO403      0.0000
      7 H          57.3688  -31.4455    1.2695 H      403  EDO403      0.0000
      8 H          57.5061  -31.7433   -1.5904 H      403  EDO403      0.0000
      9 H          59.2075  -31.2040   -1.7067 H      403  EDO403      0.0000
     10 H          57.7497  -29.4685   -1.2691 H      403  EDO403      0.0000
@<TRIPOS>BOND
     1     1     2    1
     2     1     3    1
     3     1     5    1
     4     1     6    1
     5     2     7    1
     6     3     4    1
     7     3     8    1
     8     3     9    1
     9     4    10    1

