@<TRIPOS>MOLECULE
EDO_1_B_406
 10 9 0 0 0
SMALL
NO_CHARGES

@<TRIPOS>ATOM
      1 C1         52.6270  -10.2820   27.8490 C.3    406  EDO406      0.0000
      2 O1         53.8470  -10.2820   28.6110 O.3    406  EDO406      0.0000
      3 C2         51.7940  -11.5250   28.1670 C.3    406  EDO406      0.0000
      4 O2         51.3370  -12.1840   26.9760 O.3    406  EDO406      0.0000
      5 H          52.8804  -10.2601   26.7678 H      406  EDO406      0.0000
      6 H          52.0487   -9.3598   28.0675 H      406  EDO406      0.0000
      7 H          54.3668   -9.5387   28.3351 H      406  EDO406      0.0000
      8 H          50.9214  -11.2499   28.7963 H      406  EDO406      0.0000
      9 H          52.4003  -12.2442   28.7580 H      406  EDO406      0.0000
     10 H          50.8892  -12.9796   27.2316 H      406  EDO406      0.0000
@<TRIPOS>BOND
     1     1     2    1
     2     1     3    1
     3     1     5    1
     4     1     6    1
     5     2     7    1
     6     3     4    1
     7     3     8    1
     8     3     9    1
     9     4    10    1

