@<TRIPOS>MOLECULE
EDO_2_A_403
 10 9 0 0 0
SMALL
NO_CHARGES

@<TRIPOS>ATOM
      1 C1         74.0400  -63.7600    0.1420 C.3    403  EDO403      0.0000
      2 O1         74.6480  -64.6240    1.1180 O.3    403  EDO403      0.0000
      3 C2         73.4180  -64.5480   -1.0110 C.3    403  EDO403      0.0000
      4 O2         72.4880  -65.5260   -0.5240 O.3    403  EDO403      0.0000
      5 H          74.7909  -63.0375   -0.2425 H      403  EDO403      0.0000
      6 H          73.2551  -63.1607    0.6491 H      403  EDO403      0.0000
      7 H          75.5370  -64.8066    0.8434 H      403  EDO403      0.0000
      8 H          74.2091  -65.0618   -1.5965 H      403  EDO403      0.0000
      9 H          72.8901  -63.8646   -1.7077 H      403  EDO403      0.0000
     10 H          72.8630  -65.8812    0.2740 H      403  EDO403      0.0000
@<TRIPOS>BOND
     1     1     2    1
     2     1     3    1
     3     1     5    1
     4     1     6    1
     5     2     7    1
     6     3     4    1
     7     3     8    1
     8     3     9    1
     9     4    10    1

