EDO_2_A_406
  -ISIS-            3D

 10  9  0  0  0  0  0  0  0  0  1 V2000
   52.7400  -60.9670  -11.3390 C   0  0  0  0  0
   51.4380  -61.5550  -11.4600 O   0  0  0  0  0
   53.2770  -60.6040  -12.7210 C   0  0  0  0  0
   52.5410  -59.5050  -13.2780 O   0  0  0  0  0
   53.4128  -61.6992  -10.8462 H   0  0  0  0  0
   52.6913  -60.0730  -10.6827 H   0  0  0  0  0
   50.9067  -60.9348  -11.9448 H   0  0  0  0  0
   53.2194  -61.4792  -13.4021 H   0  0  0  0  0
   54.3476  -60.3183  -12.6421 H   0  0  0  0  0
   52.9048  -59.3067  -14.1306 H   0  0  0  0  0
  1  2  1  0  0  0
  1  3  1  0  0  0
  1  5  1  0  0  0
  1  6  1  0  0  0
  2  7  1  0  0  0
  3  4  1  0  0  0
  3  8  1  0  0  0
  3  9  1  0  0  0
  4 10  1  0  0  0
M  END
$$$$
