@<TRIPOS>MOLECULE
EDO_2_B_404
 10 9 0 0 0
SMALL
NO_CHARGES

@<TRIPOS>ATOM
      1 C1         51.7870  -70.9920   32.0610 C.3    404  EDO404      0.0000
      2 O1         51.5120  -70.7790   30.6730 O.3    404  EDO404      0.0000
      3 C2         52.9540  -71.9660   32.2210 C.3    404  EDO404      0.0000
      4 O2         52.7760  -73.1410   31.4170 O.3    404  EDO404      0.0000
      5 H          50.8809  -71.4046   32.5537 H      404  EDO404      0.0000
      6 H          52.0220  -70.0243   32.5524 H      404  EDO404      0.0000
      7 H          50.7867  -70.1727   30.6043 H      404  EDO404      0.0000
      8 H          53.0661  -72.2671   33.2829 H      404  EDO404      0.0000
      9 H          53.9034  -71.4719   31.9243 H      404  EDO404      0.0000
     10 H          52.4471  -72.8370   30.5784 H      404  EDO404      0.0000
@<TRIPOS>BOND
     1     1     2    1
     2     1     3    1
     3     1     5    1
     4     1     6    1
     5     2     7    1
     6     3     4    1
     7     3     8    1
     8     3     9    1
     9     4    10    1

