EDO_1_B_403
  -ISIS-            3D

 10  9  0  0  0  0  0  0  0  0  1 V2000
   72.1750    4.7780   28.0500 C   0  0  0  0  0
   71.9550    5.4300   26.8150 O   0  0  0  0  0
   71.0100    3.8830   28.4210 C   0  0  0  0  0
   71.3360    3.4030   29.7340 O   0  0  0  0  0
   72.3542    5.5388   28.8400 H   0  0  0  0  0
   73.1052    4.1774   27.9690 H   0  0  0  0  0
   71.3944    6.1800   26.9644 H   0  0  0  0  0
   70.9055    3.0362   27.7112 H   0  0  0  0  0
   70.0552    4.4481   28.4506 H   0  0  0  0  0
   70.6659    2.7863   29.9976 H   0  0  0  0  0
  1  2  1  0  0  0
  1  3  1  0  0  0
  1  5  1  0  0  0
  1  6  1  0  0  0
  2  7  1  0  0  0
  3  4  1  0  0  0
  3  8  1  0  0  0
  3  9  1  0  0  0
  4 10  1  0  0  0
M  END
$$$$
