@<TRIPOS>MOLECULE
EDO_3_A_405
 10 9 0 0 0
SMALL
NO_CHARGES

@<TRIPOS>ATOM
      1 C1         85.6940  -53.7290  -29.3070 C.3    405  EDO405      0.0000
      2 O1         85.9840  -52.5260  -30.0310 O.3    405  EDO405      0.0000
      3 C2         84.8210  -53.4150  -28.0940 C.3    405  EDO405      0.0000
      4 O2         83.6330  -52.7320  -28.5140 O.3    405  EDO405      0.0000
      5 H          86.6425  -54.2062  -28.9814 H      405  EDO405      0.0000
      6 H          85.1736  -54.4467  -29.9764 H      405  EDO405      0.0000
      7 H          86.5282  -52.7516  -30.7735 H      405  EDO405      0.0000
      8 H          85.3732  -52.7799  -27.3697 H      405  EDO405      0.0000
      9 H          84.5362  -54.3472  -27.5642 H      405  EDO405      0.0000
     10 H          83.9175  -52.0527  -29.1150 H      405  EDO405      0.0000
@<TRIPOS>BOND
     1     1     2    1
     2     1     3    1
     3     1     5    1
     4     1     6    1
     5     2     7    1
     6     3     4    1
     7     3     8    1
     8     3     9    1
     9     4    10    1

