@<TRIPOS>MOLECULE
EDO_3_B_406
 10 9 0 0 0
SMALL
NO_CHARGES

@<TRIPOS>ATOM
      1 C1        115.7390  -40.4350   27.8490 C.3    406  EDO406      0.0000
      2 O1        115.1290  -41.4920   28.6110 O.3    406  EDO406      0.0000
      3 C2        115.0790  -39.0930   28.1670 C.3    406  EDO406      0.0000
      4 O2        114.7370  -38.3680   26.9760 O.3    406  EDO406      0.0000
      5 H         115.6143  -40.6750   26.7728 H      406  EDO406      0.0000
      6 H         116.8316  -40.4005   28.0431 H      406  EDO406      0.0000
      7 H         115.5350  -41.5159   29.4677 H      406  EDO406      0.0000
      8 H         115.7535  -38.4748   28.7961 H      406  EDO406      0.0000
      9 H         114.1523  -39.2571   28.7574 H      406  EDO406      0.0000
     10 H         114.2573  -37.5898   27.2274 H      406  EDO406      0.0000
@<TRIPOS>BOND
     1     1     2    1
     2     1     3    1
     3     1     5    1
     4     1     6    1
     5     2     7    1
     6     3     4    1
     7     3     8    1
     8     3     9    1
     9     4    10    1

