EDO_1_A_409
  -ISIS-            3D

 10  9  0  0  0  0  0  0  0  0  1 V2000
   71.2940   -7.4400  -19.0330 C   0  0  0  0  0
   71.7780   -7.2780  -20.3720 O   0  0  0  0  0
   72.3510   -8.1530  -18.1950 C   0  0  0  0  0
   71.7810   -8.6840  -16.9880 O   0  0  0  0  0
   70.3655   -8.0467  -19.0709 H   0  0  0  0  0
   71.0264   -6.4569  -18.5925 H   0  0  0  0  0
   72.3130   -6.4959  -20.4042 H   0  0  0  0  0
   73.1783   -7.4567  -17.9432 H   0  0  0  0  0
   72.7903   -8.9904  -18.7787 H   0  0  0  0  0
   72.4521   -9.1783  -16.5349 H   0  0  0  0  0
  1  2  1  0  0  0
  1  3  1  0  0  0
  1  5  1  0  0  0
  1  6  1  0  0  0
  2  7  1  0  0  0
  3  4  1  0  0  0
  3  8  1  0  0  0
  3  9  1  0  0  0
  4 10  1  0  0  0
M  END
$$$$
