@<TRIPOS>MOLECULE
EDO_3_B_404
 10 9 0 0 0
SMALL
NO_CHARGES

@<TRIPOS>ATOM
      1 C1        111.0650  -50.3880   32.0610 C.3    404  EDO404      0.0000
      2 O1        111.0190  -50.7320   30.6730 O.3    404  EDO404      0.0000
      3 C2        111.3260  -48.8910   32.2210 C.3    404  EDO404      0.0000
      4 O2        112.4330  -48.4570   31.4170 O.3    404  EDO404      0.0000
      5 H         111.8706  -50.9737   32.5519 H      404  EDO404      0.0000
      6 H         110.1085  -50.6764   32.5430 H      404  EDO404      0.0000
      7 H         111.7367  -50.2648   30.2599 H      404  EDO404      0.0000
      8 H         111.5246  -48.6528   33.2874 H      404  EDO404      0.0000
      9 H         110.4195  -48.3218   31.9231 H      404  EDO404      0.0000
     10 H         112.5495  -47.5260   31.5514 H      404  EDO404      0.0000
@<TRIPOS>BOND
     1     1     2    1
     2     1     3    1
     3     1     5    1
     4     1     6    1
     5     2     7    1
     6     3     4    1
     7     3     8    1
     8     3     9    1
     9     4    10    1

