@<TRIPOS>MOLECULE
EDO_1_B_411
 10 9 0 0 0
SMALL
NO_CHARGES

@<TRIPOS>ATOM
      1 C1         80.0770  -39.2440   16.2590 C.3    411  EDO411      0.0000
      2 O1         81.1770  -38.9590   17.1310 O.3    411  EDO411      0.0000
      3 C2         78.9060  -38.3200   16.5760 C.3    411  EDO411      0.0000
      4 O2         78.1950  -38.0180   15.3670 O.3    411  EDO411      0.0000
      5 H          79.7761  -40.3078   16.3598 H      411  EDO411      0.0000
      6 H          80.4100  -39.0920   15.2100 H      411  EDO411      0.0000
      7 H          81.9171  -39.4857   16.8594 H      411  EDO411      0.0000
      8 H          79.2774  -37.3632   16.9985 H      411  EDO411      0.0000
      9 H          78.2272  -38.7675   17.3317 H      411  EDO411      0.0000
     10 H          77.5658  -38.7096   15.2092 H      411  EDO411      0.0000
@<TRIPOS>BOND
     1     1     2    1
     2     1     3    1
     3     1     5    1
     4     1     6    1
     5     2     7    1
     6     3     4    1
     7     3     8    1
     8     3     9    1
     9     4    10    1

