@<TRIPOS>MOLECULE
EDO_1_B_403
 10 9 0 0 0
SMALL
NO_CHARGES

@<TRIPOS>ATOM
      1 C1         72.1750    4.7780   28.0500 C.3    403  EDO403      0.0000
      2 O1         71.9550    5.4300   26.8150 O.3    403  EDO403      0.0000
      3 C2         71.0100    3.8830   28.4210 C.3    403  EDO403      0.0000
      4 O2         71.3360    3.4030   29.7340 O.3    403  EDO403      0.0000
      5 H          72.3542    5.5388   28.8400 H      403  EDO403      0.0000
      6 H          73.1052    4.1774   27.9690 H      403  EDO403      0.0000
      7 H          71.3944    6.1800   26.9644 H      403  EDO403      0.0000
      8 H          70.9055    3.0362   27.7112 H      403  EDO403      0.0000
      9 H          70.0552    4.4481   28.4506 H      403  EDO403      0.0000
     10 H          70.6659    2.7863   29.9976 H      403  EDO403      0.0000
@<TRIPOS>BOND
     1     1     2    1
     2     1     3    1
     3     1     5    1
     4     1     6    1
     5     2     7    1
     6     3     4    1
     7     3     8    1
     8     3     9    1
     9     4    10    1

