EDO_3_B_411
  -ISIS-            3D

 10  9  0  0  0  0  0  0  0  0  1 V2000
   76.9320  -49.7270   16.2590 C   0  0  0  0  0
   76.6290  -50.8220   17.1310 O   0  0  0  0  0
   78.3180  -49.1750   16.5760 C   0  0  0  0  0
   78.9350  -48.7100   15.3670 O   0  0  0  0  0
   76.1625  -48.9374   16.3819 H   0  0  0  0  0
   76.8728  -50.0711   15.2045 H   0  0  0  0  0
   76.8795  -51.6296   16.7019 H   0  0  0  0  0
   78.9592  -49.9529   17.0425 H   0  0  0  0  0
   78.2487  -48.3370   17.2997 H   0  0  0  0  0
   79.5480  -49.3678   15.0661 H   0  0  0  0  0
  1  2  1  0  0  0
  1  3  1  0  0  0
  1  5  1  0  0  0
  1  6  1  0  0  0
  2  7  1  0  0  0
  3  4  1  0  0  0
  3  8  1  0  0  0
  3  9  1  0  0  0
  4 10  1  0  0  0
M  END
$$$$
