@<TRIPOS>MOLECULE
EDO_3_A_408
 10 9 0 0 0
SMALL
NO_CHARGES

@<TRIPOS>ATOM
      1 C1         95.2820  -46.9050  -22.7060 C.3    408  EDO408      0.0000
      2 O1         94.7030  -48.1100  -23.2460 O.3    408  EDO408      0.0000
      3 C2         95.0530  -46.8020  -21.2020 C.3    408  EDO408      0.0000
      4 O2         94.4490  -45.5410  -20.8450 O.3    408  EDO408      0.0000
      5 H          94.8362  -46.0313  -23.2266 H      408  EDO408      0.0000
      6 H          96.3702  -46.8887  -22.9276 H      408  EDO408      0.0000
      7 H          94.9011  -48.1446  -24.1727 H      408  EDO408      0.0000
      8 H          96.0177  -46.8964  -20.6617 H      408  EDO408      0.0000
      9 H          94.4087  -47.6314  -20.8414 H      408  EDO408      0.0000
     10 H          93.5203  -45.6006  -21.0261 H      408  EDO408      0.0000
@<TRIPOS>BOND
     1     1     2    1
     2     1     3    1
     3     1     5    1
     4     1     6    1
     5     2     7    1
     6     3     4    1
     7     3     8    1
     8     3     9    1
     9     4    10    1

