EDO_3_B_406
  -ISIS-            3D

 10  9  0  0  0  0  0  0  0  0  1 V2000
  115.7390  -40.4350   27.8490 C   0  0  0  0  0
  115.1290  -41.4920   28.6110 O   0  0  0  0  0
  115.0790  -39.0930   28.1670 C   0  0  0  0  0
  114.7370  -38.3680   26.9760 O   0  0  0  0  0
  115.6143  -40.6750   26.7728 H   0  0  0  0  0
  116.8316  -40.4005   28.0431 H   0  0  0  0  0
  115.5350  -41.5159   29.4677 H   0  0  0  0  0
  115.7535  -38.4748   28.7961 H   0  0  0  0  0
  114.1523  -39.2571   28.7574 H   0  0  0  0  0
  114.2573  -37.5898   27.2274 H   0  0  0  0  0
  1  2  1  0  0  0
  1  3  1  0  0  0
  1  5  1  0  0  0
  1  6  1  0  0  0
  2  7  1  0  0  0
  3  4  1  0  0  0
  3  8  1  0  0  0
  3  9  1  0  0  0
  4 10  1  0  0  0
M  END
$$$$
