@<TRIPOS>MOLECULE
EDO_3_B_411
 10 9 0 0 0
SMALL
NO_CHARGES

@<TRIPOS>ATOM
      1 C1         76.9320  -49.7270   16.2590 C.3    411  EDO411      0.0000
      2 O1         76.6290  -50.8220   17.1310 O.3    411  EDO411      0.0000
      3 C2         78.3180  -49.1750   16.5760 C.3    411  EDO411      0.0000
      4 O2         78.9350  -48.7100   15.3670 O.3    411  EDO411      0.0000
      5 H          76.1625  -48.9374   16.3819 H      411  EDO411      0.0000
      6 H          76.8728  -50.0711   15.2045 H      411  EDO411      0.0000
      7 H          76.8795  -51.6296   16.7019 H      411  EDO411      0.0000
      8 H          78.9592  -49.9529   17.0425 H      411  EDO411      0.0000
      9 H          78.2487  -48.3370   17.2997 H      411  EDO411      0.0000
     10 H          79.5480  -49.3678   15.0661 H      411  EDO411      0.0000
@<TRIPOS>BOND
     1     1     2    1
     2     1     3    1
     3     1     5    1
     4     1     6    1
     5     2     7    1
     6     3     4    1
     7     3     8    1
     8     3     9    1
     9     4    10    1

