@<TRIPOS>MOLECULE
FMT_1_B_410
 3 2 0 0 0
SMALL
NO_CHARGES

@<TRIPOS>ATOM
      1 C          77.0380  -34.9290   19.1260 C.2    410  FMT410      0.0000
      2 O1         78.0360  -35.3110   18.5090 O.2    410  FMT410      0.0000
      3 O2         75.8740  -35.0810   18.7410 O.2    410  FMT410     -0.5000
@<TRIPOS>BOND
     1     1     2   ar
     2     1     3   ar

