@<TRIPOS>MOLECULE
FMT_2_B_410
 3 2 0 0 0
SMALL
NO_CHARGES

@<TRIPOS>ATOM
      1 C          67.2090  -46.5510   19.1260 C.2    410  FMT410      0.0000
      2 O1         67.0410  -45.4960   18.5090 O.2    410  FMT410      0.0000
      3 O2         67.9220  -47.4830   18.7410 O.2    410  FMT410     -0.5000
@<TRIPOS>BOND
     1     1     2   ar
     2     1     3   ar

