@<TRIPOS>MOLECULE
FMT_2_B_409
 3 2 0 0 0
SMALL
NO_CHARGES

@<TRIPOS>ATOM
      1 C          70.2800  -51.2480   15.4430 C.2    409  FMT409      0.0000
      2 O1         70.5130  -52.0300   16.3650 O.2    409  FMT409      0.0000
      3 O2         71.0000  -51.1190   14.4520 O.2    409  FMT409     -0.5000
@<TRIPOS>BOND
     1     1     2   ar
     2     1     3   ar

