@<TRIPOS>MOLECULE
FMT_3_B_409
 3 2 0 0 0
SMALL
NO_CHARGES

@<TRIPOS>ATOM
      1 C          84.7200  -44.2440   15.4430 C.2    409  FMT409      0.0000
      2 O1         85.2810  -43.6520   16.3650 O.2    409  FMT409      0.0000
      3 O2         84.2490  -43.6860   14.4520 O.2    409  FMT409     -0.5000
@<TRIPOS>BOND
     1     1     2   ar
     2     1     3   ar

