@<TRIPOS>MOLECULE
U5P_2_B_401
 33 34 0 0 0
SMALL
NO_CHARGES

@<TRIPOS>ATOM
      1 N1         79.2530  -72.0550   25.9510 N.ar   401  U5P401      0.0000
      2 C2         78.0670  -71.3540   26.0610 C.ar   401  U5P401      0.0000
      3 N3         77.1860  -71.5350   25.0240 N.ar   401  U5P401      0.0000
      4 C4         77.3730  -72.3210   23.9040 C.ar   401  U5P401      0.0000
      5 C5         78.6300  -73.0130   23.8590 C.ar   401  U5P401      0.0000
      6 C6         79.5100  -72.8560   24.8620 C.ar   401  U5P401      0.0000
      7 O2         77.8150  -70.6350   27.0160 O.2    401  U5P401      0.0000
      8 O4         76.4850  -72.3810   23.0540 O.2    401  U5P401      0.0000
      9 C1'        80.2380  -71.8700   27.0460 C.3    401  U5P401      0.0000
     10 C2'        79.9650  -72.7740   28.2540 C.3    401  U5P401      0.0000
     11 O2'        80.4130  -72.0960   29.4180 O.3    401  U5P401      0.0000
     12 C3'        80.8880  -73.9440   27.9560 C.3    401  U5P401      0.0000
     13 C4'        82.1020  -73.2530   27.3560 C.3    401  U5P401      0.0000
     14 O3'        81.1930  -74.7390   29.0880 O.3    401  U5P401      0.0000
     15 O4'        81.5270  -72.1870   26.5560 O.3    401  U5P401      0.0000
     16 C5'        82.9900  -74.1180   26.5030 C.3    401  U5P401      0.0000
     17 O5'        82.3070  -74.5620   25.3420 O.3    401  U5P401      0.0000
     18 P          82.8930  -75.7490   24.4540 P.3    401  U5P401      0.0000
     19 O1P        81.9230  -75.8810   23.2960 O.co2  401  U5P401     -0.5000
     20 O2P        84.2630  -75.2850   23.9940 O.co2  401  U5P401     -0.5000
     21 O3P        82.8640  -76.9550   25.3730 O.co2  401  U5P401      0.0000
     22 H          78.8340  -73.6552   22.9877 H      401  U5P401      0.0000
     23 H          80.4779  -73.3642   24.8346 H      401  U5P401      0.0000
     24 H          80.2448  -70.8068   27.3713 H      401  U5P401      0.0000
     25 H          78.9041  -73.0824   28.3478 H      401  U5P401      0.0000
     26 H          79.7257  -71.5085   29.7039 H      401  U5P401      0.0000
     27 H          80.4111  -74.5911   27.1892 H      401  U5P401      0.0000
     28 H          82.7084  -72.7999   28.1702 H      401  U5P401      0.0000
     29 H          81.1992  -74.1544   29.8376 H      401  U5P401      0.0000
     30 H          83.3446  -74.9823   27.1029 H      401  U5P401      0.0000
     31 H          83.8892  -73.5418   26.1980 H      401  U5P401      0.0000
     32 H          81.8065  -77.1770   25.7094 H      401  U5P401      0.0000
     33 H          76.2925  -71.0283   25.0876 H      401  U5P401      0.0000
@<TRIPOS>BOND
     1     1     2   ar
     2     1     6   ar
     3     1     9    1
     4     2     3   ar
     5     2     7    2
     6     3     4   ar
     7     4     5   ar
     8     4     8    2
     9     5     6   ar
    10     5    22    1
    11     6    23    1
    12     9    10    1
    13     9    15    1
    14     9    24    1
    15    10    11    1
    16    10    12    1
    17    10    25    1
    18    11    26    1
    19    12    13    1
    20    12    14    1
    21    12    27    1
    22    13    15    1
    23    13    16    1
    24    13    28    1
    25    14    29    1
    26    16    17    1
    27    16    30    1
    28    16    31    1
    29    17    18    1
    30    18    19   ar
    31    18    20   ar
    32    18    21    1
    33    21    32    1
    34     3    33    1

