@<TRIPOS>MOLECULE
U5P_1_A_401
 33 34 0 0 0
SMALL
NO_CHARGES

@<TRIPOS>ATOM
      1 N1         92.3640  -20.4890  -25.5720 N.ar   401  U5P401      0.0000
      2 C2         90.9870  -20.5000  -25.6950 C.ar   401  U5P401      0.0000
      3 N3         90.3030  -19.9000  -24.6640 N.ar   401  U5P401      0.0000
      4 C4         90.8500  -19.3170  -23.5370 C.ar   401  U5P401      0.0000
      5 C5         92.2830  -19.3520  -23.4790 C.ar   401  U5P401      0.0000
      6 C6         92.9760  -19.9310  -24.4730 C.ar   401  U5P401      0.0000
      7 O2         90.4190  -21.0030  -26.6550 O.2    401  U5P401      0.0000
      8 O4         90.1060  -18.8250  -22.6870 O.2    401  U5P401      0.0000
      9 C1'        93.1330  -21.1580  -26.6600 C.3    401  U5P401      0.0000
     10 C2'        93.3260  -20.2730  -27.8920 C.3    401  U5P401      0.0000
     11 O2'        93.3810  -21.1180  -29.0270 O.3    401  U5P401      0.0000
     12 C3'        94.7040  -19.6930  -27.6300 C.3    401  U5P401      0.0000
     13 C4'        95.4340  -20.8670  -26.9960 C.3    401  U5P401      0.0000
     14 O3'        95.3350  -19.1960  -28.7970 O.3    401  U5P401      0.0000
     15 O4'        94.4170  -21.4990  -26.1740 O.3    401  U5P401      0.0000
     16 C5'        96.6270  -20.5050  -26.1520 C.3    401  U5P401      0.0000
     17 O5'        96.2390  -19.7040  -25.0470 O.3    401  U5P401      0.0000
     18 P          97.3220  -18.9950  -24.1170 P.3    401  U5P401      0.0000
     19 O1P        98.1120  -18.1070  -25.0600 O.co2  401  U5P401     -0.5000
     20 O2P        96.5320  -18.2960  -23.0250 O.co2  401  U5P401     -0.5000
     21 O3P        98.1610  -20.1350  -23.5670 O.co2  401  U5P401      0.0000
     22 H          92.7734  -18.9025  -22.6011 H      401  U5P401      0.0000
     23 H          94.0680  -19.9864  -24.4318 H      401  U5P401      0.0000
     24 H          92.6178  -22.0982  -26.9555 H      401  U5P401      0.0000
     25 H          92.5490  -19.4903  -28.0057 H      401  U5P401      0.0000
     26 H          92.4934  -21.3026  -29.3048 H      401  U5P401      0.0000
     27 H          94.6125  -18.8655  -26.8947 H      401  U5P401      0.0000
     28 H          95.7476  -21.5818  -27.7874 H      401  U5P401      0.0000
     29 H          95.0470  -19.7445  -29.5181 H      401  U5P401      0.0000
     30 H          97.3699  -19.9678  -26.7781 H      401  U5P401      0.0000
     31 H          97.1167  -21.4311  -25.7833 H      401  U5P401      0.0000
     32 H          97.5306  -20.8218  -22.9255 H      401  U5P401      0.0000
     33 H          89.2766  -19.8891  -24.7381 H      401  U5P401      0.0000
@<TRIPOS>BOND
     1     1     2   ar
     2     1     6   ar
     3     1     9    1
     4     2     3   ar
     5     2     7    2
     6     3     4   ar
     7     4     5   ar
     8     4     8    2
     9     5     6   ar
    10     5    22    1
    11     6    23    1
    12     9    10    1
    13     9    15    1
    14     9    24    1
    15    10    11    1
    16    10    12    1
    17    10    25    1
    18    11    26    1
    19    12    13    1
    20    12    14    1
    21    12    27    1
    22    13    15    1
    23    13    16    1
    24    13    28    1
    25    14    29    1
    26    16    17    1
    27    16    30    1
    28    16    31    1
    29    17    18    1
    30    18    19   ar
    31    18    20   ar
    32    18    21    1
    33    21    32    1
    34     3    33    1

