@<TRIPOS>MOLECULE
U5P_1_B_401
 33 34 0 0 0
SMALL
NO_CHARGES

@<TRIPOS>ATOM
      1 N1         48.9280  -32.6080   25.9510 N.ar   401  U5P401      0.0000
      2 C2         50.1290  -31.9310   26.0610 C.ar   401  U5P401      0.0000
      3 N3         50.4130  -31.0770   25.0240 N.ar   401  U5P401      0.0000
      4 C4         49.6390  -30.8470   23.9040 C.ar   401  U5P401      0.0000
      5 C5         48.4110  -31.5900   23.8590 C.ar   401  U5P401      0.0000
      6 C6         48.1070  -32.4300   24.8620 C.ar   401  U5P401      0.0000
      7 O2         50.8780  -32.0730   27.0160 O.2    401  U5P401      0.0000
      8 O4         50.0310  -30.0480   23.0540 O.2    401  U5P401      0.0000
      9 C1'        48.5970  -33.5530   27.0460 C.3    401  U5P401      0.0000
     10 C2'        47.9500  -32.8640   28.2540 C.3    401  U5P401      0.0000
     11 O2'        48.3130  -33.5920   29.4180 O.3    401  U5P401      0.0000
     12 C3'        46.4760  -33.0790   27.9560 C.3    401  U5P401      0.0000
     13 C4'        46.4670  -34.4760   27.3560 C.3    401  U5P401      0.0000
     14 O3'        45.6340  -32.9450   29.0880 O.3    401  U5P401      0.0000
     15 O4'        47.6780  -34.5110   26.5560 O.3    401  U5P401      0.0000
     16 C5'        45.2740  -34.8120   26.5030 C.3    401  U5P401      0.0000
     17 O5'        45.2310  -33.9990   25.3420 O.3    401  U5P401      0.0000
     18 P          43.9100  -33.9130   24.4540 P.3    401  U5P401      0.0000
     19 O1P        44.2800  -33.0070   23.2960 O.co2  401  U5P401     -0.5000
     20 O2P        43.6270  -35.3320   23.9940 O.co2  401  U5P401     -0.5000
     21 O3P        42.8800  -33.2850   25.3730 O.co2  401  U5P401      0.0000
     22 H          47.7536  -31.4462   22.9870 H      401  U5P401      0.0000
     23 H          47.1839  -33.0157   24.8343 H      401  U5P401      0.0000
     24 H          49.5139  -34.0885   27.3758 H      401  U5P401      0.0000
     25 H          48.2260  -31.7953   28.3517 H      401  U5P401      0.0000
     26 H          47.6755  -33.3739   30.0880 H      401  U5P401      0.0000
     27 H          46.1713  -32.3393   27.1827 H      401  U5P401      0.0000
     28 H          46.5552  -35.2264   28.1715 H      401  U5P401      0.0000
     29 H          44.7762  -32.6577   28.8049 H      401  U5P401      0.0000
     30 H          44.3473  -34.6883   27.1016 H      401  U5P401      0.0000
     31 H          45.3240  -35.8788   26.1977 H      401  U5P401      0.0000
     32 H          41.8914  -33.1773   24.8338 H      401  U5P401      0.0000
     33 H          51.2987  -30.5570   25.0892 H      401  U5P401      0.0000
@<TRIPOS>BOND
     1     1     2   ar
     2     1     6   ar
     3     1     9    1
     4     2     3   ar
     5     2     7    2
     6     3     4   ar
     7     4     5   ar
     8     4     8    2
     9     5     6   ar
    10     5    22    1
    11     6    23    1
    12     9    10    1
    13     9    15    1
    14     9    24    1
    15    10    11    1
    16    10    12    1
    17    10    25    1
    18    11    26    1
    19    12    13    1
    20    12    14    1
    21    12    27    1
    22    13    15    1
    23    13    16    1
    24    13    28    1
    25    14    29    1
    26    16    17    1
    27    16    30    1
    28    16    31    1
    29    17    18    1
    30    18    19   ar
    31    18    20   ar
    32    18    21    1
    33    21    32    1
    34     3    33    1

