U5P_2_B_401
  -ISIS-            3D

 33 34  0  0  0  0  0  0  0  0  1 V2000
   79.2530  -72.0550   25.9510 N   0  0  0  0  0
   78.0670  -71.3540   26.0610 C   0  0  0  0  0
   77.1860  -71.5350   25.0240 N   0  0  0  0  0
   77.3730  -72.3210   23.9040 C   0  0  0  0  0
   78.6300  -73.0130   23.8590 C   0  0  0  0  0
   79.5100  -72.8560   24.8620 C   0  0  0  0  0
   77.8150  -70.6350   27.0160 O   0  0  0  0  0
   76.4850  -72.3810   23.0540 O   0  0  0  0  0
   80.2380  -71.8700   27.0460 C   0  0  0  0  0
   79.9650  -72.7740   28.2540 C   0  0  0  0  0
   80.4130  -72.0960   29.4180 O   0  0  0  0  0
   80.8880  -73.9440   27.9560 C   0  0  0  0  0
   82.1020  -73.2530   27.3560 C   0  0  0  0  0
   81.1930  -74.7390   29.0880 O   0  0  0  0  0
   81.5270  -72.1870   26.5560 O   0  0  0  0  0
   82.9900  -74.1180   26.5030 C   0  0  0  0  0
   82.3070  -74.5620   25.3420 O   0  0  0  0  0
   82.8930  -75.7490   24.4540 P   0  0  0  0  0
   81.9230  -75.8810   23.2960 O   0  0  0  0  0
   84.2630  -75.2850   23.9940 O   0  0  0  0  0
   82.8640  -76.9550   25.3730 O   0  0  0  0  0
   78.8340  -73.6552   22.9877 H   0  0  0  0  0
   80.4779  -73.3642   24.8346 H   0  0  0  0  0
   80.2448  -70.8068   27.3713 H   0  0  0  0  0
   78.9041  -73.0824   28.3478 H   0  0  0  0  0
   79.7257  -71.5085   29.7039 H   0  0  0  0  0
   80.4111  -74.5911   27.1892 H   0  0  0  0  0
   82.7084  -72.7999   28.1702 H   0  0  0  0  0
   81.1992  -74.1544   29.8376 H   0  0  0  0  0
   83.3446  -74.9823   27.1029 H   0  0  0  0  0
   83.8892  -73.5418   26.1980 H   0  0  0  0  0
   81.8065  -77.1770   25.7094 H   0  0  0  0  0
   76.2925  -71.0283   25.0876 H   0  0  0  0  0
  1  2  1  0  0  0
  1  6  1  0  0  0
  1  9  1  0  0  0
  2  3  1  0  0  0
  2  7  2  0  0  0
  3  4  1  0  0  0
  4  5  1  0  0  0
  4  8  2  0  0  0
  5  6  2  0  0  0
  5 22  1  0  0  0
  6 23  1  0  0  0
  9 10  1  0  0  0
  9 15  1  0  0  0
  9 24  1  0  0  0
 10 11  1  0  0  0
 10 12  1  0  0  0
 10 25  1  0  0  0
 11 26  1  0  0  0
 12 13  1  0  0  0
 12 14  1  0  0  0
 12 27  1  0  0  0
 13 15  1  0  0  0
 13 16  1  0  0  0
 13 28  1  0  0  0
 14 29  1  0  0  0
 16 17  1  0  0  0
 16 30  1  0  0  0
 16 31  1  0  0  0
 17 18  1  0  0  0
 18 19  2  0  0  0
 18 20  2  0  0  0
 18 21  1  0  0  0
 21 32  1  0  0  0
  3 33  1  0  0  0
M  END
$$$$
