@<TRIPOS>MOLECULE
U5P_2_A_401
 33 34 0 0 0
SMALL
NO_CHARGES

@<TRIPOS>ATOM
      1 N1         47.0410  -40.4980  -25.5720 N.ar   401  U5P401      0.0000
      2 C2         47.7390  -41.6860  -25.6950 C.ar   401  U5P401      0.0000
      3 N3         47.5610  -42.5770  -24.6640 N.ar   401  U5P401      0.0000
      4 C4         46.7830  -42.3960  -23.5370 C.ar   401  U5P401      0.0000
      5 C5         46.0960  -41.1380  -23.4790 C.ar   401  U5P401      0.0000
      6 C6         46.2520  -40.2480  -24.4730 C.ar   401  U5P401      0.0000
      7 O2         48.4580  -41.9260  -26.6550 O.2    401  U5P401      0.0000
      8 O4         46.7290  -43.2860  -22.6870 O.2    401  U5P401      0.0000
      9 C1'        47.2360  -39.4980  -26.6600 C.3    401  U5P401      0.0000
     10 C2'        46.3720  -39.7740  -27.8920 C.3    401  U5P401      0.0000
     11 O2'        47.0770  -39.3030  -29.0270 O.3    401  U5P401      0.0000
     12 C3'        45.1820  -38.8700  -27.6300 C.3    401  U5P401      0.0000
     13 C4'        45.8330  -37.6510  -26.9960 C.3    401  U5P401      0.0000
     14 O3'        44.4350  -38.5720  -28.7970 O.3    401  U5P401      0.0000
     15 O4'        46.8890  -38.2150  -26.1740 O.3    401  U5P401      0.0000
     16 C5'        44.9230  -36.7990  -26.1520 C.3    401  U5P401      0.0000
     17 O5'        44.4230  -37.5360  -25.0470 O.3    401  U5P401      0.0000
     18 P          43.2680  -36.9510  -24.1170 P.3    401  U5P401      0.0000
     19 O1P        42.1040  -36.7120  -25.0600 O.co2  401  U5P401     -0.5000
     20 O2P        43.0570  -37.9850  -23.0250 O.co2  401  U5P401     -0.5000
     21 O3P        43.8350  -35.6550  -23.5670 O.co2  401  U5P401      0.0000
     22 H          45.4609  -40.9384  -22.6015 H      401  U5P401      0.0000
     23 H          45.7540  -39.2746  -24.4317 H      401  U5P401      0.0000
     24 H          48.3078  -39.4741  -26.9555 H      401  U5P401      0.0000
     25 H          46.0827  -40.8382  -28.0060 H      401  U5P401      0.0000
     26 H          47.6839  -39.9774  -29.3022 H      401  U5P401      0.0000
     27 H          44.5112  -39.3628  -26.8945 H      401  U5P401      0.0000
     28 H          46.2951  -37.0218  -27.7873 H      401  U5P401      0.0000
     29 H          45.0536  -38.5474  -29.5184 H      401  U5P401      0.0000
     30 H          44.0864  -36.4242  -26.7782 H      401  U5P401      0.0000
     31 H          45.4799  -35.9120  -25.7825 H      401  U5P401      0.0000
     32 H          43.0737  -35.1462  -22.9024 H      401  U5P401      0.0000
     33 H          48.0650  -43.4713  -24.7380 H      401  U5P401      0.0000
@<TRIPOS>BOND
     1     1     2   ar
     2     1     6   ar
     3     1     9    1
     4     2     3   ar
     5     2     7    2
     6     3     4   ar
     7     4     5   ar
     8     4     8    2
     9     5     6   ar
    10     5    22    1
    11     6    23    1
    12     9    10    1
    13     9    15    1
    14     9    24    1
    15    10    11    1
    16    10    12    1
    17    10    25    1
    18    11    26    1
    19    12    13    1
    20    12    14    1
    21    12    27    1
    22    13    15    1
    23    13    16    1
    24    13    28    1
    25    14    29    1
    26    16    17    1
    27    16    30    1
    28    16    31    1
    29    17    18    1
    30    18    19   ar
    31    18    20   ar
    32    18    21    1
    33    21    32    1
    34     3    33    1

