U5P_3_A_401
  -ISIS-            3D

 33 34  0  0  0  0  0  0  0  0  1 V2000
   87.0310  -69.7450  -25.5720 N   0  0  0  0  0
   87.7100  -68.5470  -25.6950 C   0  0  0  0  0
   88.5710  -68.2550  -24.6640 N   0  0  0  0  0
   88.8030  -69.0200  -23.5370 C   0  0  0  0  0
   88.0570  -70.2430  -23.4790 C   0  0  0  0  0
   87.2080  -70.5540  -24.4730 C   0  0  0  0  0
   87.5580  -67.8040  -26.6550 O   0  0  0  0  0
   89.6010  -68.6210  -22.6870 O   0  0  0  0  0
   86.0670  -70.0770  -26.6600 C   0  0  0  0  0
   86.7370  -70.6860  -27.8920 C   0  0  0  0  0
   85.9780  -70.3110  -29.0270 O   0  0  0  0  0
   86.5500  -72.1690  -27.6300 C   0  0  0  0  0
   85.1690  -72.2150  -26.9960 C   0  0  0  0  0
   86.6650  -72.9650  -28.7970 O   0  0  0  0  0
   85.1290  -71.0180  -26.1740 O   0  0  0  0  0
   84.8860  -73.4290  -26.1520 C   0  0  0  0  0
   85.7740  -73.4930  -25.0470 O   0  0  0  0  0
   85.8460  -74.7860  -24.1170 P   0  0  0  0  0
   86.2200  -75.9140  -25.0600 O   0  0  0  0  0
   86.8460  -74.4510  -23.0250 O   0  0  0  0  0
   84.4390  -74.9420  -23.5670 O   0  0  0  0  0
   88.2010  -70.8920  -22.6007 H   0  0  0  0  0
   86.6127  -71.4711  -24.4309 H   0  0  0  0  0
   85.5123  -69.1610  -26.9602 H   0  0  0  0  0
   87.7988  -70.3921  -28.0096 H   0  0  0  0  0
   86.1235  -70.9704  -29.6956 H   0  0  0  0  0
   87.3060  -72.4970  -26.8828 H   0  0  0  0  0
   84.3945  -72.1305  -27.7888 H   0  0  0  0  0
   87.5803  -73.1661  -28.9419 H   0  0  0  0  0
   84.9802  -74.3411  -26.7779 H   0  0  0  0  0
   83.8392  -73.3900  -25.7831 H   0  0  0  0  0
   84.1602  -74.0526  -22.9255 H   0  0  0  0  0
   89.0922  -67.3710  -24.7390 H   0  0  0  0  0
  1  2  1  0  0  0
  1  6  1  0  0  0
  1  9  1  0  0  0
  2  3  1  0  0  0
  2  7  2  0  0  0
  3  4  1  0  0  0
  4  5  1  0  0  0
  4  8  2  0  0  0
  5  6  2  0  0  0
  5 22  1  0  0  0
  6 23  1  0  0  0
  9 10  1  0  0  0
  9 15  1  0  0  0
  9 24  1  0  0  0
 10 11  1  0  0  0
 10 12  1  0  0  0
 10 25  1  0  0  0
 11 26  1  0  0  0
 12 13  1  0  0  0
 12 14  1  0  0  0
 12 27  1  0  0  0
 13 15  1  0  0  0
 13 16  1  0  0  0
 13 28  1  0  0  0
 14 29  1  0  0  0
 16 17  1  0  0  0
 16 30  1  0  0  0
 16 31  1  0  0  0
 17 18  1  0  0  0
 18 19  2  0  0  0
 18 20  2  0  0  0
 18 21  1  0  0  0
 21 32  1  0  0  0
  3 33  1  0  0  0
M  END
$$$$
