ADE_1_A_7115
  -ISIS-            3D

 15 16  0  0  0  0  0  0  0  0  1 V2000
   82.7410   46.6120   17.7180 N   0  0  0  0  0
   81.4550   47.0310   17.5680 C   0  0  0  0  0
   81.1670   48.1210   18.2410 N   0  0  0  0  0
   82.3610   48.4370   18.8790 C   0  0  0  0  0
   82.7310   49.4830   19.7480 C   0  0  0  0  0
   81.8990   50.4440   20.1410 N   0  0  0  0  0
   84.0070   49.5000   20.2040 N   0  0  0  0  0
   84.8440   48.5310   19.8070 C   0  0  0  0  0
   84.6130   47.5010   18.9970 N   0  0  0  0  0
   83.3380   47.5070   18.5590 C   0  0  0  0  0
   83.1863   45.7925   17.2921 H   0  0  0  0  0
   80.6640   46.5662   16.9640 H   0  0  0  0  0
   85.8694   48.5972   20.2099 H   0  0  0  0  0
   82.3024   51.1430   20.7771 H   0  0  0  0  0
   80.9361   50.4106   19.7828 H   0  0  0  0  0
  1  2  2  0  0  0
  1 10  1  0  0  0
  1 11  1  0  0  0
  2  3  1  0  0  0
  2 12  1  0  0  0
  3  4  1  0  0  0
  4  5  1  0  0  0
  4 10  2  0  0  0
  5  6  1  0  0  0
  5  7  2  0  0  0
  6 14  1  0  0  0
  6 15  1  0  0  0
  7  8  1  0  0  0
  8  9  2  0  0  0
  8 13  1  0  0  0
  9 10  1  0  0  0
M  END
$$$$
