@<TRIPOS>MOLECULE
ADE_1_A_7116
 15 16 0 0 0
SMALL
NO_CHARGES

@<TRIPOS>ATOM
      1 N9        107.2400   21.9110   41.0760 N.ar  7116  ADE7116      0.0000
      2 C8        107.4410   23.2420   40.8870 C.ar  7116  ADE7116      0.0000
      3 N7        106.5930   24.0080   41.5340 N.ar  7116  ADE7116      0.0000
      4 C5        105.7740   23.1010   42.1970 C.ar  7116  ADE7116      0.0000
      5 C6        104.6710   23.2660   43.0580 C.ar  7116  ADE7116      0.0000
      6 N6        104.1800   24.4520   43.4090 N.pl3 7116  ADE7116      0.0000
      7 N1        104.0820   22.1460   43.5450 N.ar  7116  ADE7116      0.0000
      8 C2        104.5750   20.9530   43.1860 C.ar  7116  ADE7116      0.0000
      9 N3        105.6030   20.6740   42.3880 N.ar  7116  ADE7116      0.0000
     10 C4        106.1700   21.8020   41.9170 C.ar  7116  ADE7116      0.0000
     11 H         107.7752   21.1338   40.6749 H     7116  ADE7116      0.0000
     12 H         108.2127   23.7231   40.2708 H     7116  ADE7116      0.0000
     13 H         104.0551   20.0782   43.6134 H     7116  ADE7116      0.0000
     14 H         103.3703   24.4239   44.0411 H     7116  ADE7116      0.0000
     15 H         104.6423   25.2865   43.0262 H     7116  ADE7116      0.0000
@<TRIPOS>BOND
     1     1     2   ar
     2     1    10   ar
     3     1    11    1
     4     2     3   ar
     5     2    12    1
     6     3     4   ar
     7     4     5   ar
     8     4    10   ar
     9     5     6    1
    10     5     7   ar
    11     6    14    1
    12     6    15    1
    13     7     8   ar
    14     8     9   ar
    15     8    13    1
    16     9    10   ar

