@<TRIPOS>MOLECULE
GTA_1_A_7113
 79 84 0 0 0
SMALL
NO_CHARGES

@<TRIPOS>ATOM
      1 N2         82.9770   30.9170   45.3640 N.pl3 7113  GTA7113      0.0000
      2 O6         85.2340   32.1380   41.5740 O.2   7113  GTA7113      0.0000
      3 C6         84.8880   31.2140   42.3020 C.ar  7113  GTA7113      0.0000
      4 C5         85.1590   29.8550   42.1640 C.ar  7113  GTA7113      0.0000
      5 N7         85.8680   29.1300   41.2050 N.ar  7113  GTA7113      0.0000
      6 C7         86.5150   29.6690   40.0100 C.3   7113  GTA7113      0.0000
      7 C8         85.8620   27.8480   41.5670 C.ar  7113  GTA7113      0.0000
      8 N9         85.1360   27.6900   42.6540 N.ar  7113  GTA7113      0.0000
      9 C4         84.6970   28.9420   43.0770 C.ar  7113  GTA7113      0.0000
     10 N3         83.9650   29.2050   44.1760 N.ar  7113  GTA7113      0.0000
     11 C2         83.7020   30.4920   44.3220 C.ar  7113  GTA7113      0.0000
     12 N1         84.1370   31.4460   43.4390 N.ar  7113  GTA7113      0.0000
     13 O3A        82.9590   23.8640   41.9020 O.3   7113  GTA7113      0.0000
     14 C1A        85.0080   26.4560   43.4550 C.3   7113  GTA7113      0.0000
     15 C2A        83.6400   25.8270   43.2500 C.3   7113  GTA7113      0.0000
     16 C3A        83.9140   24.9010   42.0830 C.3   7113  GTA7113      0.0000
     17 C4A        85.2900   24.3490   42.4760 C.3   7113  GTA7113      0.0000
     18 C5A        86.1290   23.7920   41.3500 C.3   7113  GTA7113      0.0000
     19 O4A        85.9640   25.4930   43.0650 O.3   7113  GTA7113      0.0000
     20 O2A        83.2860   25.1180   44.4210 O.3   7113  GTA7113      0.0000
     21 P1         86.5500   24.4120   38.8190 P.3   7113  GTA7113      0.0000
     22 O11        87.9850   24.1150   38.5520 O.co2 7113  GTA7113      0.0000
     23 O12        85.5300   23.3890   38.4600 O.co2 7113  GTA7113      0.0000
     24 O13        86.1910   25.7990   38.0980 O.3   7113  GTA7113      0.0000
     25 O15        86.3710   24.8310   40.3620 O.3   7113  GTA7113      0.0000
     26 P2         84.8230   26.5930   37.8690 P.3   7113  GTA7113      0.0000
     27 O22        85.1540   27.9690   37.3990 O.co2 7113  GTA7113      0.0000
     28 O21        83.9170   26.4090   39.0430 O.co2 7113  GTA7113      0.0000
     29 O23        84.1930   25.7520   36.6640 O.3   7113  GTA7113      0.0000
     30 P3         82.6940   25.7370   36.1090 P.3   7113  GTA7113      0.0000
     31 O32        82.3730   27.1060   35.6020 O.co2 7113  GTA7113      0.0000
     32 O31        81.7960   25.1200   37.1320 O.co2 7113  GTA7113      0.0000
     33 O33        82.8400   24.7200   34.8850 O.3   7113  GTA7113      0.0000
     34 C5B        83.5930   25.1040   33.7140 C.3   7113  GTA7113      0.0000
     35 C4B        83.3230   24.0990   32.6240 C.3   7113  GTA7113      0.0000
     36 O4B        83.8100   22.7980   33.0420 O.3   7113  GTA7113      0.0000
     37 C3B        81.8500   23.8520   32.2810 C.3   7113  GTA7113      0.0000
     38 O3B        81.3350   24.8390   31.3960 O.3   7113  GTA7113      0.0000
     39 C2B        81.9380   22.4680   31.6380 C.3   7113  GTA7113      0.0000
     40 O2B        82.4040   22.5300   30.3080 O.3   7113  GTA7113      0.0000
     41 C1B        82.9540   21.7860   32.5530 C.3   7113  GTA7113      0.0000
     42 N9C        82.3360   21.1010   33.6870 N.ar  7113  GTA7113      0.0000
     43 C8C        82.0510   21.6050   34.9370 C.ar  7113  GTA7113      0.0000
     44 N7C        81.4810   20.7160   35.7200 N.ar  7113  GTA7113      0.0000
     45 C5C        81.3820   19.5700   34.9400 C.ar  7113  GTA7113      0.0000
     46 C6C        80.8680   18.2830   35.1960 C.ar  7113  GTA7113      0.0000
     47 N6C        80.3300   17.9180   36.3550 N.pl3 7113  GTA7113      0.0000
     48 N1C        80.9260   17.3760   34.1900 N.ar  7113  GTA7113      0.0000
     49 C2C        81.4650   17.7490   33.0200 C.ar  7113  GTA7113      0.0000
     50 N3C        81.9800   18.9260   32.6690 N.ar  7113  GTA7113      0.0000
     51 C4C        81.9050   19.8010   33.6860 C.ar  7113  GTA7113      0.0000
     52 H          87.0544   28.8596   39.4711 H     7113  GTA7113      0.0000
     53 H          87.2434   30.4545   40.3086 H     7113  GTA7113      0.0000
     54 H          85.7428   30.1085   39.3411 H     7113  GTA7113      0.0000
     55 H          86.3679   27.0095   41.0802 H     7113  GTA7113      0.0000
     56 H          82.4671   24.0438   41.1117 H     7113  GTA7113      0.0000
     57 H          85.1649   26.7187   44.5230 H     7113  GTA7113      0.0000
     58 H          82.8583   26.5763   43.0093 H     7113  GTA7113      0.0000
     59 H          84.0049   25.5020   41.1577 H     7113  GTA7113      0.0000
     60 H          85.1653   23.5680   43.2571 H     7113  GTA7113      0.0000
     61 H          85.6061   22.9227   40.9011 H     7113  GTA7113      0.0000
     62 H          87.1032   23.4258   41.7360 H     7113  GTA7113      0.0000
     63 H          82.6644   24.4489   44.1594 H     7113  GTA7113      0.0000
     64 H          84.6764   25.1411   33.9531 H     7113  GTA7113      0.0000
     65 H          83.2858   26.1135   33.3696 H     7113  GTA7113      0.0000
     66 H          83.8710   24.4023   31.7056 H     7113  GTA7113      0.0000
     67 H          81.2360   23.8033   33.2050 H     7113  GTA7113      0.0000
     68 H          80.3934   24.8749   31.4988 H     7113  GTA7113      0.0000
     69 H          80.9572   21.9493   31.6628 H     7113  GTA7113      0.0000
     70 H          82.0230   23.3070   29.9151 H     7113  GTA7113      0.0000
     71 H          83.5473   21.0331   31.9930 H     7113  GTA7113      0.0000
     72 H          82.2360   22.5987   35.3518 H     7113  GTA7113      0.0000
     73 H          81.4863   16.9699   32.2387 H     7113  GTA7113      0.0000
     74 H          82.7725   31.9177   45.4727 H     7113  GTA7113      0.0000
     75 H          82.6701   30.1718   46.0004 H     7113  GTA7113      0.0000
     76 H          79.9914   16.9488   36.3979 H     7113  GTA7113      0.0000
     77 H          80.2971   18.6224   37.1030 H     7113  GTA7113      0.0000
     78 H          83.8598   32.4048   43.6773 H     7113  GTA7113      0.0000
     79 H          88.2815   23.1396   39.0423 H     7113  GTA7113      0.0000
@<TRIPOS>BOND
     1     1    11    1
     2     1    74    1
     3     1    75    1
     4     2     3    2
     5     3     4   ar
     6     3    12   ar
     7     4     5   ar
     8     4     9   ar
     9     5     6    1
    10     5     7   ar
    11     6    52    1
    12     6    53    1
    13     6    54    1
    14     7     8   ar
    15     7    55    1
    16     8     9   ar
    17     8    14    1
    18     9    10   ar
    19    10    11   ar
    20    11    12   ar
    21    12    78    1
    22    13    16    1
    23    13    56    1
    24    14    15    1
    25    14    19    1
    26    14    57    1
    27    15    16    1
    28    15    20    1
    29    15    58    1
    30    16    17    1
    31    16    59    1
    32    17    18    1
    33    17    19    1
    34    17    60    1
    35    18    25    1
    36    18    61    1
    37    18    62    1
    38    20    63    1
    39    21    22    1
    40    21    23    2
    41    21    24    1
    42    21    25    1
    43    24    26    1
    44    26    27    2
    45    26    28    2
    46    26    29    1
    47    29    30    1
    48    30    31    2
    49    30    32    2
    50    30    33    1
    51    33    34    1
    52    34    35    1
    53    34    64    1
    54    34    65    1
    55    35    36    1
    56    35    37    1
    57    35    66    1
    58    36    41    1
    59    37    38    1
    60    37    39    1
    61    37    67    1
    62    38    68    1
    63    39    40    1
    64    39    41    1
    65    39    69    1
    66    40    70    1
    67    41    42    1
    68    41    71    1
    69    42    43   ar
    70    42    51   ar
    71    43    44   ar
    72    43    72    1
    73    44    45   ar
    74    45    46   ar
    75    45    51   ar
    76    46    47    1
    77    46    48   ar
    78    47    76    1
    79    47    77    1
    80    48    49   ar
    81    49    50   ar
    82    49    73    1
    83    50    51   ar
    84    22    79    1

