@<TRIPOS>MOLECULE
SAM_1_A_7112
 50 52 0 0 0
SMALL
NO_CHARGES

@<TRIPOS>ATOM
      1 N          82.3860   19.5880   24.3630 N.3   7112  SAM7112      1.0000
      2 CA         81.0560   19.0790   24.7870 C.3   7112  SAM7112      0.0000
      3 C          79.9660   19.9310   24.1300 C.2   7112  SAM7112      0.0000
      4 O          80.1730   20.3880   23.0010 O.co2 7112  SAM7112     -0.5000
      5 OXT        78.8910   20.1730   24.6720 O.co2 7112  SAM7112     -0.5000
      6 CB         80.9270   19.1050   26.3160 C.3   7112  SAM7112      0.0000
      7 CG         82.0030   18.2650   27.0050 C.3   7112  SAM7112      0.0000
      8 SD         81.7170   18.0580   28.7830 S.3   7112  SAM7112      0.0000
      9 CE         82.0240   19.7040   29.3940 C.3   7112  SAM7112      0.0000
     10 C5'        83.2720   17.2260   29.2090 C.3   7112  SAM7112      0.0000
     11 C4'        83.3700   15.8480   28.5850 C.3   7112  SAM7112      0.0000
     12 O4'        84.6720   15.2760   28.8460 O.3   7112  SAM7112      0.0000
     13 C3'        82.3520   14.8290   29.1110 C.3   7112  SAM7112      0.0000
     14 O3'        81.4500   14.4800   28.0680 O.3   7112  SAM7112      0.0000
     15 C2'        83.2110   13.6470   29.5910 C.3   7112  SAM7112      0.0000
     16 O2'        82.6500   12.3950   29.2690 O.3   7112  SAM7112      0.0000
     17 C1'        84.5140   13.8790   28.8380 C.3   7112  SAM7112      0.0000
     18 N9         85.6830   13.2490   29.4430 N.ar  7112  SAM7112      0.0000
     19 C8         86.1740   13.4630   30.7060 C.ar  7112  SAM7112      0.0000
     20 N7         87.2390   12.7530   30.9800 N.ar  7112  SAM7112      0.0000
     21 C5         87.4650   12.0140   29.8290 C.ar  7112  SAM7112      0.0000
     22 C6         88.4470   11.0610   29.4920 C.ar  7112  SAM7112      0.0000
     23 N6         89.4210   10.6750   30.3160 N.pl3 7112  SAM7112      0.0000
     24 N1         88.3860   10.5120   28.2550 N.ar  7112  SAM7112      0.0000
     25 C2         87.4020   10.9000   27.4340 C.ar  7112  SAM7112      0.0000
     26 N3         86.4250   11.7780   27.6430 N.ar  7112  SAM7112      0.0000
     27 C4         86.5120   12.3110   28.8730 C.ar  7112  SAM7112      0.0000
     28 H          83.1330   18.9953   24.7103 H     7112  SAM7112      0.0000
     29 H          82.5396   20.5327   24.7044 H     7112  SAM7112      0.0000
     30 H          80.9342   18.0309   24.4230 H     7112  SAM7112      0.0000
     31 H          79.9238   18.7109   26.6007 H     7112  SAM7112      0.0000
     32 H          80.9750   20.1565   26.6804 H     7112  SAM7112      0.0000
     33 H          83.0100   18.7140   26.8601 H     7112  SAM7112      0.0000
     34 H          82.0144   17.2564   26.5371 H     7112  SAM7112      0.0000
     35 H          82.0876   19.6942   30.5037 H     7112  SAM7112      0.0000
     36 H          81.1950   20.3887   29.1141 H     7112  SAM7112      0.0000
     37 H          82.9706   20.1346   29.0029 H     7112  SAM7112      0.0000
     38 H          83.3443   17.1547   30.3163 H     7112  SAM7112      0.0000
     39 H          84.1272   17.8536   28.8747 H     7112  SAM7112      0.0000
     40 H          83.2704   15.9263   27.4820 H     7112  SAM7112      0.0000
     41 H          81.7771   15.2373   29.9683 H     7112  SAM7112      0.0000
     42 H          81.2326   13.5629   28.1908 H     7112  SAM7112      0.0000
     43 H          83.3718   13.7310   30.6869 H     7112  SAM7112      0.0000
     44 H          83.2801   11.7260   29.5037 H     7112  SAM7112      0.0000
     45 H          84.4276   13.5203   27.7899 H     7112  SAM7112      0.0000
     46 H          85.7897   14.1451   31.4758 H     7112  SAM7112      0.0000
     47 H          87.4009   10.4195   26.4402 H     7112  SAM7112      0.0000
     48 H          90.0660    9.9710   29.9363 H     7112  SAM7112      0.0000
     49 H          89.4495   11.1053   31.2492 H     7112  SAM7112      0.0000
     50 H          82.4666   19.5967   23.3504 H     7112  SAM7112      0.0000
@<TRIPOS>BOND
     1     1     2    1
     2     1    28    1
     3     1    29    1
     4     2     3    1
     5     2     6    1
     6     2    30    1
     7     3     4   ar
     8     3     5   ar
     9     6     7    1
    10     6    31    1
    11     6    32    1
    12     7     8    1
    13     7    33    1
    14     7    34    1
    15     8     9    1
    16     8    10    1
    17     9    35    1
    18     9    36    1
    19     9    37    1
    20    10    11    1
    21    10    38    1
    22    10    39    1
    23    11    12    1
    24    11    13    1
    25    11    40    1
    26    12    17    1
    27    13    14    1
    28    13    15    1
    29    13    41    1
    30    14    42    1
    31    15    16    1
    32    15    17    1
    33    15    43    1
    34    16    44    1
    35    17    18    1
    36    17    45    1
    37    18    19   ar
    38    18    27   ar
    39    19    20   ar
    40    19    46    1
    41    20    21   ar
    42    21    22   ar
    43    21    27   ar
    44    22    23    1
    45    22    24   ar
    46    23    48    1
    47    23    49    1
    48    24    25   ar
    49    25    26   ar
    50    25    47    1
    51    26    27   ar
    52     1    50    1

