@<TRIPOS>MOLECULE
4BL_1_A_201
 21 22 0 0 0
SMALL
NO_CHARGES

@<TRIPOS>ATOM
      1 C1        -39.1830  -38.3130   17.8140 C.ar   201  4BL201      0.0000
      2 N2        -39.1380  -38.1750   16.5030 N.ar   201  4BL201      0.0000
      3 C3        -40.4740  -38.5610   18.1820 C.ar   201  4BL201      0.0000
      4 C4        -40.3680  -38.2710   15.9740 C.ar   201  4BL201      0.0000
      5 C5        -38.0210  -38.3840   18.7860 C.2    201  4BL201      0.0000
      6 C6        -41.2300  -38.5090   17.0100 C.ar   201  4BL201      0.0000
      7 C7        -40.8750  -38.1820   14.6490 C.ar   201  4BL201      0.0000
      8 O8        -38.1350  -38.3170   20.0290 O.co2  201  4BL201     -0.5000
      9 C9        -42.5930  -38.6620   16.7890 C.ar   201  4BL201      0.0000
     10 O10       -36.9150  -38.6890   18.3260 O.co2  201  4BL201     -0.5000
     11 C11       -42.2500  -38.3370   14.4410 C.ar   201  4BL201      0.0000
     12 C12       -43.0920  -38.5660   15.5060 C.ar   201  4BL201      0.0000
     13 C13       -42.8910  -38.2420   13.0500 C.3    201  4BL201      0.0000
     14 H         -38.0451  -37.9456   15.8048 H      201  4BL201      0.0000
     15 H         -40.8529  -38.7666   19.1923 H      201  4BL201      0.0000
     16 H         -40.1918  -37.9927   13.8054 H      201  4BL201      0.0000
     17 H         -43.2715  -38.8560   17.6365 H      201  4BL201      0.0000
     18 H         -44.1776  -38.6802   15.3459 H      201  4BL201      0.0000
     19 H         -43.9927  -38.3902   13.0727 H      201  4BL201      0.0000
     20 H         -42.4658  -39.0116   12.3682 H      201  4BL201      0.0000
     21 H         -42.6983  -37.2449   12.5957 H      201  4BL201      0.0000
@<TRIPOS>BOND
     1     1     2   ar
     2     1     3   ar
     3     1     5    1
     4     2     4   ar
     5     2    14    1
     6     3     6   ar
     7     3    15    1
     8     4     6   ar
     9     4     7   ar
    10     5     8   ar
    11     5    10   ar
    12     6     9   ar
    13     7    11   ar
    14     7    16    1
    15     9    12   ar
    16     9    17    1
    17    11    12   ar
    18    11    13    1
    19    12    18    1
    20    13    19    1
    21    13    20    1
    22    13    21    1

