@<TRIPOS>MOLECULE
DMS_2_A_1005
 10 9 0 0 0
SMALL
NO_CHARGES

@<TRIPOS>ATOM
      1 S         -21.0590   14.5960   -7.7620 S.o   1005  DMS1005      0.0000
      2 O         -22.5010   14.8600   -7.8480 O.2   1005  DMS1005      0.0000
      3 C1        -20.8020   13.1710   -8.7690 C.3   1005  DMS1005      0.0000
      4 C2        -20.8780   13.7970   -6.2090 C.3   1005  DMS1005      0.0000
      5 H         -19.7737   12.7829   -8.6193 H     1005  DMS1005      0.0000
      6 H         -20.9241   13.4492   -9.8359 H     1005  DMS1005      0.0000
      7 H         -21.5353   12.3767   -8.5196 H     1005  DMS1005      0.0000
      8 H         -19.8506   13.3906   -6.1100 H     1005  DMS1005      0.0000
      9 H         -21.6112   12.9711   -6.1032 H     1005  DMS1005      0.0000
     10 H         -21.0470   14.5320   -5.3954 H     1005  DMS1005      0.0000
@<TRIPOS>BOND
     1     1     2    2
     2     1     3    1
     3     1     4    1
     4     3     5    1
     5     3     6    1
     6     3     7    1
     7     4     8    1
     8     4     9    1
     9     4    10    1

