DMS_2_A_1005
  -ISIS-            3D

 10  9  0  0  0  0  0  0  0  0  1 V2000
  -21.0590   14.5960   -7.7620 S   0  0  0  0  0
  -22.5010   14.8600   -7.8480 O   0  0  0  0  0
  -20.8020   13.1710   -8.7690 C   0  0  0  0  0
  -20.8780   13.7970   -6.2090 C   0  0  0  0  0
  -19.7737   12.7829   -8.6193 H   0  0  0  0  0
  -20.9241   13.4492   -9.8359 H   0  0  0  0  0
  -21.5353   12.3767   -8.5196 H   0  0  0  0  0
  -19.8506   13.3906   -6.1100 H   0  0  0  0  0
  -21.6112   12.9711   -6.1032 H   0  0  0  0  0
  -21.0470   14.5320   -5.3954 H   0  0  0  0  0
  1  2  2  0  0  0
  1  3  1  0  0  0
  1  4  1  0  0  0
  3  5  1  0  0  0
  3  6  1  0  0  0
  3  7  1  0  0  0
  4  8  1  0  0  0
  4  9  1  0  0  0
  4 10  1  0  0  0
M  END
$$$$
