DMS_1_A_1003
  -ISIS-            3D

 10  9  0  0  0  0  0  0  0  0  1 V2000
    6.2390   -1.1130   -6.2740 S   0  0  0  0  0
    7.1940   -0.8840   -7.3480 O   0  0  0  0  0
    7.2400   -1.0580   -4.8090 C   0  0  0  0  0
    5.8930   -2.8300   -6.2690 C   0  0  0  0  0
    6.6380   -1.3676   -3.9304 H   0  0  0  0  0
    7.5988   -0.0207   -4.6475 H   0  0  0  0  0
    8.1163   -1.7312   -4.9106 H   0  0  0  0  0
    5.3086   -3.0953   -5.3644 H   0  0  0  0  0
    6.8337   -3.4183   -6.2841 H   0  0  0  0  0
    5.2946   -3.0879   -7.1666 H   0  0  0  0  0
  1  2  2  0  0  0
  1  3  1  0  0  0
  1  4  1  0  0  0
  3  5  1  0  0  0
  3  6  1  0  0  0
  3  7  1  0  0  0
  4  8  1  0  0  0
  4  9  1  0  0  0
  4 10  1  0  0  0
M  END
$$$$
