@<TRIPOS>MOLECULE
DMS_1_A_1004
 10 9 0 0 0
SMALL
NO_CHARGES

@<TRIPOS>ATOM
      1 S           2.4730  -19.0210    8.0110 S.o   1004  DMS1004      0.0000
      2 O           3.7090  -18.8230    8.8100 O.2   1004  DMS1004      0.0000
      3 C1          1.2980  -17.9370    8.7770 C.3   1004  DMS1004      0.0000
      4 C2          1.8280  -20.5160    8.7200 C.3   1004  DMS1004      0.0000
      5 H           0.2771  -18.1663    8.4088 H     1004  DMS1004      0.0000
      6 H           1.5429  -16.8878    8.5128 H     1004  DMS1004      0.0000
      7 H           1.3250  -18.0441    9.8809 H     1004  DMS1004      0.0000
      8 H           0.7939  -20.6891    8.3578 H     1004  DMS1004      0.0000
      9 H           1.8255  -20.4579    9.8279 H     1004  DMS1004      0.0000
     10 H           2.4606  -21.3719    8.4070 H     1004  DMS1004      0.0000
@<TRIPOS>BOND
     1     1     2    2
     2     1     3    1
     3     1     4    1
     4     3     5    1
     5     3     6    1
     6     3     7    1
     7     4     8    1
     8     4     9    1
     9     4    10    1

