@<TRIPOS>MOLECULE
DMS_1_A_1003
 10 9 0 0 0
SMALL
NO_CHARGES

@<TRIPOS>ATOM
      1 S           6.2390   -1.1130   -6.2740 S.o   1003  DMS1003      0.0000
      2 O           7.1940   -0.8840   -7.3480 O.2   1003  DMS1003      0.0000
      3 C1          7.2400   -1.0580   -4.8090 C.3   1003  DMS1003      0.0000
      4 C2          5.8930   -2.8300   -6.2690 C.3   1003  DMS1003      0.0000
      5 H           6.6380   -1.3676   -3.9304 H     1003  DMS1003      0.0000
      6 H           7.5988   -0.0207   -4.6475 H     1003  DMS1003      0.0000
      7 H           8.1163   -1.7312   -4.9106 H     1003  DMS1003      0.0000
      8 H           5.3086   -3.0953   -5.3644 H     1003  DMS1003      0.0000
      9 H           6.8337   -3.4183   -6.2841 H     1003  DMS1003      0.0000
     10 H           5.2946   -3.0879   -7.1666 H     1003  DMS1003      0.0000
@<TRIPOS>BOND
     1     1     2    2
     2     1     3    1
     3     1     4    1
     4     3     5    1
     5     3     6    1
     6     3     7    1
     7     4     8    1
     8     4     9    1
     9     4    10    1

