@<TRIPOS>MOLECULE
DMS_1_B_404
 10 9 0 0 0
SMALL
NO_CHARGES

@<TRIPOS>ATOM
      1 S          -3.3690    6.1150   25.4010 S.o    404  DMS404      0.0000
      2 O          -4.6390    6.7410   25.7960 O.2    404  DMS404      0.0000
      3 C1         -3.5580    4.4030   25.8280 C.3    404  DMS404      0.0000
      4 C2         -2.2290    6.5990   26.6630 C.3    404  DMS404      0.0000
      5 H          -2.5860    3.8801   25.7184 H      404  DMS404      0.0000
      6 H          -4.2963    3.9334   25.1462 H      404  DMS404      0.0000
      7 H          -3.9147    4.3017   26.8736 H      404  DMS404      0.0000
      8 H          -1.2774    6.0420   26.5425 H      404  DMS404      0.0000
      9 H          -2.6513    6.3918   27.6677 H      404  DMS404      0.0000
     10 H          -2.0212    7.6850   26.5748 H      404  DMS404      0.0000
@<TRIPOS>BOND
     1     1     2    2
     2     1     3    1
     3     1     4    1
     4     3     5    1
     5     3     6    1
     6     3     7    1
     7     4     8    1
     8     4     9    1
     9     4    10    1

