@<TRIPOS>MOLECULE
DMS_1_B_403
 10 9 0 0 0
SMALL
NO_CHARGES

@<TRIPOS>ATOM
      1 S          -6.2730    3.7770   11.8170 S.o    403  DMS403      0.0000
      2 O          -6.7040    5.1800   11.7050 O.2    403  DMS403      0.0000
      3 C1         -5.0890    3.5530   10.5400 C.3    403  DMS403      0.0000
      4 C2         -7.6320    2.8120   11.2130 C.3    403  DMS403      0.0000
      5 H          -4.8120    2.4813   10.4694 H      403  DMS403      0.0000
      6 H          -4.1789    4.1437   10.7706 H      403  DMS403      0.0000
      7 H          -5.5023    3.8891    9.5667 H      403  DMS403      0.0000
      8 H          -7.3301    1.7473   11.1380 H      403  DMS403      0.0000
      9 H          -7.9477    3.1759   10.2136 H      403  DMS403      0.0000
     10 H          -8.4854    2.8955   11.9167 H      403  DMS403      0.0000
@<TRIPOS>BOND
     1     1     2    2
     2     1     3    1
     3     1     4    1
     4     3     5    1
     5     3     6    1
     6     3     7    1
     7     4     8    1
     8     4     9    1
     9     4    10    1

