DMS_1_B_405
  -ISIS-            3D

 10  9  0  0  0  0  0  0  0  0  1 V2000
   -7.0720  -17.3290    1.6600 S   0  0  0  0  0
   -6.2590  -17.1680    0.4340 O   0  0  0  0  0
   -6.5600  -18.8530    2.3710 C   0  0  0  0  0
   -8.6780  -17.8040    1.0680 C   0  0  0  0  0
   -7.2354  -19.1230    3.2083 H   0  0  0  0  0
   -5.5281  -18.7483    2.7642 H   0  0  0  0  0
   -6.5765  -19.6609    1.6110 H   0  0  0  0  0
   -9.3219  -18.0936    1.9234 H   0  0  0  0  0
   -8.5939  -18.6579    0.3647 H   0  0  0  0  0
   -9.1447  -16.9459    0.5424 H   0  0  0  0  0
  1  2  2  0  0  0
  1  3  1  0  0  0
  1  4  1  0  0  0
  3  5  1  0  0  0
  3  6  1  0  0  0
  3  7  1  0  0  0
  4  8  1  0  0  0
  4  9  1  0  0  0
  4 10  1  0  0  0
M  END
$$$$
