@<TRIPOS>MOLECULE
DMS_1_A_403
 10 9 0 0 0
SMALL
NO_CHARGES

@<TRIPOS>ATOM
      1 S           0.4770  -10.9590   18.9120 S.o    403  DMS403      0.0000
      2 O           1.2130  -12.1740   18.6020 O.2    403  DMS403      0.0000
      3 C1         -0.2900  -11.2960   20.4700 C.3    403  DMS403      0.0000
      4 C2         -0.8670  -11.0660   17.8130 C.3    403  DMS403      0.0000
      5 H          -1.0250  -10.4990   20.7042 H      403  DMS403      0.0000
      6 H           0.4828  -11.3169   21.2654 H      403  DMS403      0.0000
      7 H          -0.8090  -12.2763   20.4417 H      403  DMS403      0.0000
      8 H          -1.6103  -10.2782   18.0522 H      403  DMS403      0.0000
      9 H          -1.3555  -12.0596   17.8873 H      403  DMS403      0.0000
     10 H          -0.5116  -10.9149   16.7730 H      403  DMS403      0.0000
@<TRIPOS>BOND
     1     1     2    2
     2     1     3    1
     3     1     4    1
     4     3     5    1
     5     3     6    1
     6     3     7    1
     7     4     8    1
     8     4     9    1
     9     4    10    1

