DMS_1_A_405
  -ISIS-            3D

 10  9  0  0  0  0  0  0  0  0  1 V2000
  -23.2170   -3.0980   10.2360 S   0  0  0  0  0
  -24.6360   -3.1270    9.8350 O   0  0  0  0  0
  -22.3050   -2.7990    8.7440 C   0  0  0  0  0
  -22.7960   -4.7910   10.4980 C   0  0  0  0  0
  -21.2197   -2.9215    8.9371 H   0  0  0  0  0
  -22.4932   -1.7615    8.3998 H   0  0  0  0  0
  -22.6201   -3.5069    7.9501 H   0  0  0  0  0
  -21.7027   -4.8854   10.6593 H   0  0  0  0  0
  -23.0922   -5.4044    9.6223 H   0  0  0  0  0
  -23.3238   -5.1672   11.3982 H   0  0  0  0  0
  1  2  2  0  0  0
  1  3  1  0  0  0
  1  4  1  0  0  0
  3  5  1  0  0  0
  3  6  1  0  0  0
  3  7  1  0  0  0
  4  8  1  0  0  0
  4  9  1  0  0  0
  4 10  1  0  0  0
M  END
$$$$
