DMS_1_A_402
  -ISIS-            3D

 10  9  0  0  0  0  0  0  0  0  1 V2000
  -21.6860   -8.9010    9.3590 S   0  0  0  0  0
  -20.5860   -9.8660    9.4540 O   0  0  0  0  0
  -22.5990   -9.4670    7.9510 C   0  0  0  0  0
  -20.9250   -7.4600    8.6590 C   0  0  0  0  0
  -23.3597   -8.7103    7.6697 H   0  0  0  0  0
  -23.1149  -10.4160    8.2035 H   0  0  0  0  0
  -21.9195   -9.6415    7.0913 H   0  0  0  0  0
  -21.7061   -6.7267    8.3723 H   0  0  0  0  0
  -20.3294   -7.7318    7.7631 H   0  0  0  0  0
  -20.2559   -6.9947    9.4116 H   0  0  0  0  0
  1  2  2  0  0  0
  1  3  1  0  0  0
  1  4  1  0  0  0
  3  5  1  0  0  0
  3  6  1  0  0  0
  3  7  1  0  0  0
  4  8  1  0  0  0
  4  9  1  0  0  0
  4 10  1  0  0  0
M  END
$$$$
