@<TRIPOS>MOLECULE
DMS_1_A_402
 10 9 0 0 0
SMALL
NO_CHARGES

@<TRIPOS>ATOM
      1 S         -21.6860   -8.9010    9.3590 S.o    402  DMS402      0.0000
      2 O         -20.5860   -9.8660    9.4540 O.2    402  DMS402      0.0000
      3 C1        -22.5990   -9.4670    7.9510 C.3    402  DMS402      0.0000
      4 C2        -20.9250   -7.4600    8.6590 C.3    402  DMS402      0.0000
      5 H         -23.3597   -8.7103    7.6697 H      402  DMS402      0.0000
      6 H         -23.1149  -10.4160    8.2035 H      402  DMS402      0.0000
      7 H         -21.9195   -9.6415    7.0913 H      402  DMS402      0.0000
      8 H         -21.7061   -6.7267    8.3723 H      402  DMS402      0.0000
      9 H         -20.3294   -7.7318    7.7631 H      402  DMS402      0.0000
     10 H         -20.2559   -6.9947    9.4116 H      402  DMS402      0.0000
@<TRIPOS>BOND
     1     1     2    2
     2     1     3    1
     3     1     4    1
     4     3     5    1
     5     3     6    1
     6     3     7    1
     7     4     8    1
     8     4     9    1
     9     4    10    1

