@<TRIPOS>MOLECULE
DMS_1_A_405
 10 9 0 0 0
SMALL
NO_CHARGES

@<TRIPOS>ATOM
      1 S         -23.2170   -3.0980   10.2360 S.o    405  DMS405      0.0000
      2 O         -24.6360   -3.1270    9.8350 O.2    405  DMS405      0.0000
      3 C1        -22.3050   -2.7990    8.7440 C.3    405  DMS405      0.0000
      4 C2        -22.7960   -4.7910   10.4980 C.3    405  DMS405      0.0000
      5 H         -21.2197   -2.9215    8.9371 H      405  DMS405      0.0000
      6 H         -22.4932   -1.7615    8.3998 H      405  DMS405      0.0000
      7 H         -22.6201   -3.5069    7.9501 H      405  DMS405      0.0000
      8 H         -21.7027   -4.8854   10.6593 H      405  DMS405      0.0000
      9 H         -23.0922   -5.4044    9.6223 H      405  DMS405      0.0000
     10 H         -23.3238   -5.1672   11.3982 H      405  DMS405      0.0000
@<TRIPOS>BOND
     1     1     2    2
     2     1     3    1
     3     1     4    1
     4     3     5    1
     5     3     6    1
     6     3     7    1
     7     4     8    1
     8     4     9    1
     9     4    10    1

