DMS_2_A_404
  -ISIS-            3D

 10  9  0  0  0  0  0  0  0  0  1 V2000
  -20.8240   14.6210   -7.9980 S   0  0  0  0  0
  -22.2210   15.0670   -7.8940 O   0  0  0  0  0
  -20.8720   13.2570   -9.1060 C   0  0  0  0  0
  -20.5810   13.6710   -6.5370 C   0  0  0  0  0
  -19.8952   12.7315   -9.1032 H   0  0  0  0  0
  -21.0718   13.6255  -10.1330 H   0  0  0  0  0
  -21.6735   12.5454   -8.8203 H   0  0  0  0  0
  -19.6133   13.1315   -6.5921 H   0  0  0  0  0
  -21.4030   12.9386   -6.4018 H   0  0  0  0  0
  -20.5581   14.3479   -5.6585 H   0  0  0  0  0
  1  2  2  0  0  0
  1  3  1  0  0  0
  1  4  1  0  0  0
  3  5  1  0  0  0
  3  6  1  0  0  0
  3  7  1  0  0  0
  4  8  1  0  0  0
  4  9  1  0  0  0
  4 10  1  0  0  0
M  END
$$$$
