DMS_1_A_401
  -ISIS-            3D

 10  9  0  0  0  0  0  0  0  0  1 V2000
    7.0930  -28.0810   21.4110 S   0  0  0  0  0
    7.7170  -27.1630   22.3580 O   0  0  0  0  0
    5.8130  -28.8350   22.3590 C   0  0  0  0  0
    6.0800  -27.1000   20.3740 C   0  0  0  0  0
    5.1653  -29.4473   21.6987 H   0  0  0  0  0
    5.1961  -28.0653   22.8670 H   0  0  0  0  0
    6.2644  -29.4974   23.1259 H   0  0  0  0  0
    5.4379  -27.7512   19.7464 H   0  0  0  0  0
    6.7205  -26.4862   19.7080 H   0  0  0  0  0
    5.4394  -26.4243   20.9771 H   0  0  0  0  0
  1  2  2  0  0  0
  1  3  1  0  0  0
  1  4  1  0  0  0
  3  5  1  0  0  0
  3  6  1  0  0  0
  3  7  1  0  0  0
  4  8  1  0  0  0
  4  9  1  0  0  0
  4 10  1  0  0  0
M  END
$$$$
