@<TRIPOS>MOLECULE
DMS_2_A_404
 10 9 0 0 0
SMALL
NO_CHARGES

@<TRIPOS>ATOM
      1 S         -20.8240   14.6210   -7.9980 S.o    404  DMS404      0.0000
      2 O         -22.2210   15.0670   -7.8940 O.2    404  DMS404      0.0000
      3 C1        -20.8720   13.2570   -9.1060 C.3    404  DMS404      0.0000
      4 C2        -20.5810   13.6710   -6.5370 C.3    404  DMS404      0.0000
      5 H         -19.8952   12.7315   -9.1032 H      404  DMS404      0.0000
      6 H         -21.0718   13.6255  -10.1330 H      404  DMS404      0.0000
      7 H         -21.6735   12.5454   -8.8203 H      404  DMS404      0.0000
      8 H         -19.6133   13.1315   -6.5921 H      404  DMS404      0.0000
      9 H         -21.4030   12.9386   -6.4018 H      404  DMS404      0.0000
     10 H         -20.5581   14.3479   -5.6585 H      404  DMS404      0.0000
@<TRIPOS>BOND
     1     1     2    2
     2     1     3    1
     3     1     4    1
     4     3     5    1
     5     3     6    1
     6     3     7    1
     7     4     8    1
     8     4     9    1
     9     4    10    1

