DMS_2_A_403
  -ISIS-            3D

 10  9  0  0  0  0  0  0  0  0  1 V2000
   -2.3530  -19.0250   -8.1160 S   0  0  0  0  0
   -3.6070  -18.8050   -8.8800 O   0  0  0  0  0
   -1.1920  -17.9390   -8.8880 C   0  0  0  0  0
   -1.7190  -20.5160   -8.8560 C   0  0  0  0  0
   -0.1648  -18.1765   -8.5430 H   0  0  0  0  0
   -1.4270  -16.8923   -8.6056 H   0  0  0  0  0
   -1.2405  -18.0310   -9.9925 H   0  0  0  0  0
   -0.6783  -20.6929   -8.5151 H   0  0  0  0  0
   -1.7378  -20.4444   -9.9630 H   0  0  0  0  0
   -2.3462  -21.3751   -8.5410 H   0  0  0  0  0
  1  2  2  0  0  0
  1  3  1  0  0  0
  1  4  1  0  0  0
  3  5  1  0  0  0
  3  6  1  0  0  0
  3  7  1  0  0  0
  4  8  1  0  0  0
  4  9  1  0  0  0
  4 10  1  0  0  0
M  END
$$$$
