@<TRIPOS>MOLECULE
DMS_2_A_402
 10 9 0 0 0
SMALL
NO_CHARGES

@<TRIPOS>ATOM
      1 S          -6.2380   -1.0570    6.3780 S.o    402  DMS402      0.0000
      2 O          -7.2340   -0.4730    7.2630 O.2    402  DMS402      0.0000
      3 C1         -7.1380   -1.3090    4.8640 C.3    402  DMS402      0.0000
      4 C2         -6.1100   -2.7360    6.8660 C.3    402  DMS402      0.0000
      5 H          -6.5251   -1.9055    4.1577 H      402  DMS402      0.0000
      6 H          -7.3604   -0.3257    4.4008 H      402  DMS402      0.0000
      7 H          -8.0925   -1.8392    5.0618 H      402  DMS402      0.0000
      8 H          -5.5095   -3.3002    6.1235 H      402  DMS402      0.0000
      9 H          -7.1158   -3.1969    6.9507 H      402  DMS402      0.0000
     10 H          -5.6038   -2.7961    7.8514 H      402  DMS402      0.0000
@<TRIPOS>BOND
     1     1     2    2
     2     1     3    1
     3     1     4    1
     4     3     5    1
     5     3     6    1
     6     3     7    1
     7     4     8    1
     8     4     9    1
     9     4    10    1

