EDO_1_A_7103
  -ISIS-            3D

 10  9  0  0  0  0  0  0  0  0  1 V2000
  -63.1720   65.5950   -5.2630 C   0  0  0  0  0
  -63.1040   66.1790   -3.9570 O   0  0  0  0  0
  -63.0540   64.0830   -5.1080 C   0  0  0  0  0
  -63.0630   63.4330   -6.3850 O   0  0  0  0  0
  -62.3372   65.9899   -5.8780 H   0  0  0  0  0
  -64.1218   65.8796   -5.7625 H   0  0  0  0  0
  -63.9659   66.1462   -3.5632 H   0  0  0  0  0
  -63.8802   63.6837   -4.4821 H   0  0  0  0  0
  -62.1050   63.8269   -4.5923 H   0  0  0  0  0
  -63.9553   63.4059   -6.7052 H   0  0  0  0  0
  1  2  1  0  0  0
  1  3  1  0  0  0
  1  5  1  0  0  0
  1  6  1  0  0  0
  2  7  1  0  0  0
  3  4  1  0  0  0
  3  8  1  0  0  0
  3  9  1  0  0  0
  4 10  1  0  0  0
M  END
$$$$
