@<TRIPOS>MOLECULE
EDO_1_A_7103
 10 9 0 0 0
SMALL
NO_CHARGES

@<TRIPOS>ATOM
      1 C1        -63.1720   65.5950   -5.2630 C.3   7103  EDO7103      0.0000
      2 O1        -63.1040   66.1790   -3.9570 O.3   7103  EDO7103      0.0000
      3 C2        -63.0540   64.0830   -5.1080 C.3   7103  EDO7103      0.0000
      4 O2        -63.0630   63.4330   -6.3850 O.3   7103  EDO7103      0.0000
      5 H         -62.3372   65.9899   -5.8780 H     7103  EDO7103      0.0000
      6 H         -64.1218   65.8796   -5.7625 H     7103  EDO7103      0.0000
      7 H         -63.9659   66.1462   -3.5632 H     7103  EDO7103      0.0000
      8 H         -63.8802   63.6837   -4.4821 H     7103  EDO7103      0.0000
      9 H         -62.1050   63.8269   -4.5923 H     7103  EDO7103      0.0000
     10 H         -63.9553   63.4059   -6.7052 H     7103  EDO7103      0.0000
@<TRIPOS>BOND
     1     1     2    1
     2     1     3    1
     3     1     5    1
     4     1     6    1
     5     2     7    1
     6     3     4    1
     7     3     8    1
     8     3     9    1
     9     4    10    1

