EDO_1_B_4401
  -ISIS-            3D

 10  9  0  0  0  0  0  0  0  0  1 V2000
  -63.8110   84.1160   21.4600 C   0  0  0  0  0
  -63.0010   82.9490   21.2970 O   0  0  0  0  0
  -63.0000   85.3540   21.1060 C   0  0  0  0  0
  -63.8850   86.4230   20.7630 O   0  0  0  0  0
  -64.1864   84.1798   22.5030 H   0  0  0  0  0
  -64.6946   84.0292   20.7924 H   0  0  0  0  0
  -63.5052   82.1959   21.5755 H   0  0  0  0  0
  -62.3189   85.1509   20.2522 H   0  0  0  0  0
  -62.3655   85.6620   21.9623 H   0  0  0  0  0
  -64.0908   86.3573   19.8397 H   0  0  0  0  0
  1  2  1  0  0  0
  1  3  1  0  0  0
  1  5  1  0  0  0
  1  6  1  0  0  0
  2  7  1  0  0  0
  3  4  1  0  0  0
  3  8  1  0  0  0
  3  9  1  0  0  0
  4 10  1  0  0  0
M  END
$$$$
