@<TRIPOS>MOLECULE
EDO_1_B_4401
 10 9 0 0 0
SMALL
NO_CHARGES

@<TRIPOS>ATOM
      1 C1        -63.8110   84.1160   21.4600 C.3   4401  EDO4401      0.0000
      2 O1        -63.0010   82.9490   21.2970 O.3   4401  EDO4401      0.0000
      3 C2        -63.0000   85.3540   21.1060 C.3   4401  EDO4401      0.0000
      4 O2        -63.8850   86.4230   20.7630 O.3   4401  EDO4401      0.0000
      5 H         -64.1864   84.1798   22.5030 H     4401  EDO4401      0.0000
      6 H         -64.6946   84.0292   20.7924 H     4401  EDO4401      0.0000
      7 H         -63.5052   82.1959   21.5755 H     4401  EDO4401      0.0000
      8 H         -62.3189   85.1509   20.2522 H     4401  EDO4401      0.0000
      9 H         -62.3655   85.6620   21.9623 H     4401  EDO4401      0.0000
     10 H         -64.0908   86.3573   19.8397 H     4401  EDO4401      0.0000
@<TRIPOS>BOND
     1     1     2    1
     2     1     3    1
     3     1     5    1
     4     1     6    1
     5     2     7    1
     6     3     4    1
     7     3     8    1
     8     3     9    1
     9     4    10    1

