SAM_1_A_7104
  -ISIS-            3D

 50 52  0  0  0  0  0  0  0  0  1 V2000
  -59.5910   65.2290    1.4230 N   0  3  0  0  0
  -59.8980   66.6110    1.0700 C   0  0  0  0  0
  -61.2640   67.0470    1.5920 C   0  0  0  0  0
  -61.7570   66.5230    2.5910 O   0  0  0  0  0
  -61.8980   67.9460    1.0380 O   0  0  0  0  0
  -59.8220   66.7940   -0.4420 C   0  0  0  0  0
  -59.0360   65.7070   -1.1670 C   0  0  0  0  0
  -58.6560   66.1650   -2.8770 S   0  0  0  0  0
  -59.8190   65.0800   -3.7350 C   0  0  0  0  0
  -57.1210   65.2550   -3.1920 C   0  0  0  0  0
  -55.9000   65.9160   -2.5710 C   0  0  0  0  0
  -54.7610   65.0850   -2.6970 O   0  0  0  0  0
  -55.5760   67.2330   -3.2590 C   0  0  0  0  0
  -55.7880   68.2940   -2.3590 O   0  0  0  0  0
  -54.1070   67.1450   -3.6140 C   0  0  0  0  0
  -53.4230   68.2810   -3.1440 O   0  0  0  0  0
  -53.6240   65.9040   -2.8820 C   0  0  0  0  0
  -52.5330   65.2220   -3.6060 N   0  0  0  0  0
  -52.5320   64.8000   -4.9110 C   0  0  0  0  0
  -51.3320   64.2300   -5.1730 N   0  0  0  0  0
  -50.5690   64.2870   -4.0580 C   0  0  0  0  0
  -49.2770   63.8560   -3.7830 C   0  0  0  0  0
  -48.5590   63.2590   -4.7300 N   0  0  0  0  0
  -48.7460   64.0530   -2.5240 N   0  0  0  0  0
  -49.5010   64.6750   -1.5490 C   0  0  0  0  0
  -50.7840   65.1000   -1.8310 N   0  0  0  0  0
  -51.3120   64.9090   -3.0660 C   0  0  0  0  0
  -60.2330   64.5787    0.9785 H   0  0  0  0  0
  -59.6816   65.1009    2.4271 H   0  0  0  0  0
  -59.1334   67.2704    1.5485 H   0  0  0  0  0
  -59.3795   67.7939   -0.6597 H   0  0  0  0  0
  -60.8467   66.8077   -0.8797 H   0  0  0  0  0
  -59.5466   64.7201   -1.1416 H   0  0  0  0  0
  -58.0435   65.5874   -0.6801 H   0  0  0  0  0
  -59.6593   65.1453   -4.8332 H   0  0  0  0  0
  -60.8638   65.3970   -3.5261 H   0  0  0  0  0
  -59.7152   64.0145   -3.4375 H   0  0  0  0  0
  -56.9827   65.1542   -4.2909 H   0  0  0  0  0
  -57.2349   64.2223   -2.7945 H   0  0  0  0  0
  -56.0717   66.0913   -1.4871 H   0  0  0  0  0
  -56.1811   67.3902   -4.1758 H   0  0  0  0  0
  -55.2475   69.0266   -2.6272 H   0  0  0  0  0
  -53.9942   67.0424   -4.7132 H   0  0  0  0  0
  -52.5066   68.1877   -3.3710 H   0  0  0  0  0
  -53.2349   66.1906   -1.8807 H   0  0  0  0  0
  -53.3062   64.8543   -5.6858 H   0  0  0  0  0
  -49.0787   64.8322   -0.5444 H   0  0  0  0  0
  -47.6144   62.9733   -4.4443 H   0  0  0  0  0
  -48.9897   63.1292   -5.6544 H   0  0  0  0  0
  -58.6363   64.9719    1.1944 H   0  0  0  0  0
  1  2  1  0  0  0
  1 28  1  0  0  0
  1 29  1  0  0  0
  2  3  1  0  0  0
  2  6  1  0  0  0
  2 30  1  0  0  0
  3  4  2  0  0  0
  3  5  2  0  0  0
  6  7  1  0  0  0
  6 31  1  0  0  0
  6 32  1  0  0  0
  7  8  1  0  0  0
  7 33  1  0  0  0
  7 34  1  0  0  0
  8  9  1  0  0  0
  8 10  1  0  0  0
  9 35  1  0  0  0
  9 36  1  0  0  0
  9 37  1  0  0  0
 10 11  1  0  0  0
 10 38  1  0  0  0
 10 39  1  0  0  0
 11 12  1  0  0  0
 11 13  1  0  0  0
 11 40  1  0  0  0
 12 17  1  0  0  0
 13 14  1  0  0  0
 13 15  1  0  0  0
 13 41  1  0  0  0
 14 42  1  0  0  0
 15 16  1  0  0  0
 15 17  1  0  0  0
 15 43  1  0  0  0
 16 44  1  0  0  0
 17 18  1  0  0  0
 17 45  1  0  0  0
 18 19  1  0  0  0
 18 27  1  0  0  0
 19 20  2  0  0  0
 19 46  1  0  0  0
 20 21  1  0  0  0
 21 22  2  0  0  0
 21 27  1  0  0  0
 22 23  1  0  0  0
 22 24  1  0  0  0
 23 48  1  0  0  0
 23 49  1  0  0  0
 24 25  1  0  0  0
 25 26  1  0  0  0
 25 47  1  0  0  0
 26 27  2  0  0  0
  1 50  1  0  0  0
M  END
$$$$
