@<TRIPOS>MOLECULE
IMD_1_E_601
 9 9 0 0 0
SMALL
NO_CHARGES

@<TRIPOS>ATOM
      1 N1         24.0910   32.9070  -80.1200 N.ar   601  IMD601      0.0000
      2 C2         23.3010   32.9110  -79.0230 C.ar   601  IMD601      0.0000
      3 N3         23.7070   33.9030  -78.1990 N.ar   601  IMD601      0.0000
      4 C4         24.7580   34.5260  -78.7740 C.ar   601  IMD601      0.0000
      5 C5         25.0000   33.8960  -79.9880 C.ar   601  IMD601      0.0000
      6 H          24.0118   32.2612  -80.9151 H      601  IMD601      0.0000
      7 H          22.4532   32.2686  -78.7525 H      601  IMD601      0.0000
      8 H          25.2467   35.3678  -78.2700 H      601  IMD601      0.0000
      9 H          25.7837   34.1460  -80.7182 H      601  IMD601      0.0000
@<TRIPOS>BOND
     1     1     2   ar
     2     1     5   ar
     3     1     6    1
     4     2     3   ar
     5     2     7    1
     6     3     4   ar
     7     4     5   ar
     8     4     8    1
     9     5     9    1

