PG6_1_L_301
  -ISIS-            3D

 44 43  0  0  0  0  0  0  0  0  1 V2000
  -38.0830    8.2170  -61.0870 C   0  0  0  0  0
  -37.0540    7.9660  -60.1700 O   0  0  0  0  0
  -35.8480    7.5500  -60.7480 C   0  0  0  0  0
  -34.8740    8.7250  -60.8330 C   0  0  0  0  0
  -33.6560    8.2810  -61.3620 O   0  0  0  0  0
  -32.9330    9.2720  -62.0370 C   0  0  0  0  0
  -33.7550    9.8030  -63.2100 C   0  0  0  0  0
  -33.6840   11.2020  -63.2380 O   0  0  0  0  0
  -34.6450   11.8080  -64.0570 C   0  0  0  0  0
  -35.5720   12.6820  -63.2100 C   0  0  0  0  0
  -34.9240   13.8750  -62.8700 O   0  0  0  0  0
  -35.7900   14.8800  -62.4200 C   0  0  0  0  0
  -35.0780   15.7560  -61.3870 C   0  0  0  0  0
  -34.3970   16.7960  -62.0310 O   0  0  0  0  0
  -35.2230   17.5900  -62.8350 C   0  0  0  0  0
  -34.3900   18.3770  -63.8460 C   0  0  0  0  0
  -35.1660   18.6550  -64.9810 O   0  0  0  0  0
  -36.3440   19.3760  -64.7340 C   0  0  0  0  0
  -38.9801    8.5748  -60.5418 H   0  0  0  0  0
  -38.3583    7.2916  -61.6342 H   0  0  0  0  0
  -37.7839    9.0006  -61.8137 H   0  0  0  0  0
  -36.0129    7.0933  -61.7456 H   0  0  0  0  0
  -35.4102    6.7572  -60.1059 H   0  0  0  0  0
  -34.6875    9.1264  -59.8144 H   0  0  0  0  0
  -35.3353    9.5543  -61.3978 H   0  0  0  0  0
  -31.9743    8.8432  -62.3941 H   0  0  0  0  0
  -32.6730   10.0841  -61.3262 H   0  0  0  0  0
  -34.8052    9.4577  -63.2046 H   0  0  0  0  0
  -33.3291    9.4075  -64.1568 H   0  0  0  0  0
  -35.2378   11.0545  -64.6157 H   0  0  0  0  0
  -34.1307   12.4254  -64.8223 H   0  0  0  0  0
  -35.8986   12.1432  -62.2963 H   0  0  0  0  0
  -36.4817   12.9078  -63.8071 H   0  0  0  0  0
  -36.6284   14.3953  -61.8722 H   0  0  0  0  0
  -36.2777   15.3517  -63.2857 H   0  0  0  0  0
  -34.3622   15.1621  -60.7829 H   0  0  0  0  0
  -35.8126   16.1899  -60.6761 H   0  0  0  0  0
  -35.7973   18.2843  -62.1858 H   0  0  0  0  0
  -35.9626   17.0086  -63.4012 H   0  0  0  0  0
  -33.5142   17.7769  -64.1692 H   0  0  0  0  0
  -33.9941   19.3135  -63.4022 H   0  0  0  0  0
  -36.7972   19.6692  -65.7030 H   0  0  0  0  0
  -36.1303   20.3039  -64.1640 H   0  0  0  0  0
  -37.0939   18.7701  -64.1879 H   0  0  0  0  0
  1  2  1  0  0  0
  1 19  1  0  0  0
  1 20  1  0  0  0
  1 21  1  0  0  0
  2  3  1  0  0  0
  3  4  1  0  0  0
  3 22  1  0  0  0
  3 23  1  0  0  0
  4  5  1  0  0  0
  4 24  1  0  0  0
  4 25  1  0  0  0
  5  6  1  0  0  0
  6  7  1  0  0  0
  6 26  1  0  0  0
  6 27  1  0  0  0
  7  8  1  0  0  0
  7 28  1  0  0  0
  7 29  1  0  0  0
  8  9  1  0  0  0
  9 10  1  0  0  0
  9 30  1  0  0  0
  9 31  1  0  0  0
 10 11  1  0  0  0
 10 32  1  0  0  0
 10 33  1  0  0  0
 11 12  1  0  0  0
 12 13  1  0  0  0
 12 34  1  0  0  0
 12 35  1  0  0  0
 13 14  1  0  0  0
 13 36  1  0  0  0
 13 37  1  0  0  0
 14 15  1  0  0  0
 15 16  1  0  0  0
 15 38  1  0  0  0
 15 39  1  0  0  0
 16 17  1  0  0  0
 16 40  1  0  0  0
 16 41  1  0  0  0
 17 18  1  0  0  0
 18 42  1  0  0  0
 18 43  1  0  0  0
 18 44  1  0  0  0
M  END
$$$$
