IPA_1_A_601
  -ISIS-            3D

 12 11  0  0  0  0  0  0  0  0  1 V2000
   -5.9970  -11.7000  -50.9490 C   0  0  0  0  0
   -6.9240  -12.3040  -49.9010 C   0  0  0  0  0
   -7.8010  -11.2040  -49.3270 C   0  0  0  0  0
   -6.1800  -12.9250  -48.8920 O   0  0  0  0  0
   -5.3368  -12.4731  -51.4002 H   0  0  0  0  0
   -5.3359  -10.9130  -50.5243 H   0  0  0  0  0
   -6.5664  -11.2358  -51.7839 H   0  0  0  0  0
   -7.5717  -13.0680  -50.3874 H   0  0  0  0  0
   -8.4976  -11.6014  -48.5563 H   0  0  0  0  0
   -8.4278  -10.7251  -50.1110 H   0  0  0  0  0
   -7.2058  -10.3980  -48.8445 H   0  0  0  0  0
   -5.6291  -12.2794  -48.4702 H   0  0  0  0  0
  1  2  1  0  0  0
  1  5  1  0  0  0
  1  6  1  0  0  0
  1  7  1  0  0  0
  2  3  1  0  0  0
  2  4  1  0  0  0
  2  8  1  0  0  0
  3  9  1  0  0  0
  3 10  1  0  0  0
  3 11  1  0  0  0
  4 12  1  0  0  0
M  END
$$$$
