@<TRIPOS>MOLECULE
IPA_1_A_601
 12 11 0 0 0
SMALL
NO_CHARGES

@<TRIPOS>ATOM
      1 C1         -5.9970  -11.7000  -50.9490 C.3    601  IPA601      0.0000
      2 C2         -6.9240  -12.3040  -49.9010 C.3    601  IPA601      0.0000
      3 C3         -7.8010  -11.2040  -49.3270 C.3    601  IPA601      0.0000
      4 O2         -6.1800  -12.9250  -48.8920 O.3    601  IPA601      0.0000
      5 H          -5.3368  -12.4731  -51.4002 H      601  IPA601      0.0000
      6 H          -5.3359  -10.9130  -50.5243 H      601  IPA601      0.0000
      7 H          -6.5664  -11.2358  -51.7839 H      601  IPA601      0.0000
      8 H          -7.5717  -13.0680  -50.3874 H      601  IPA601      0.0000
      9 H          -8.4976  -11.6014  -48.5563 H      601  IPA601      0.0000
     10 H          -8.4278  -10.7251  -50.1110 H      601  IPA601      0.0000
     11 H          -7.2058  -10.3980  -48.8445 H      601  IPA601      0.0000
     12 H          -5.6291  -12.2794  -48.4702 H      601  IPA601      0.0000
@<TRIPOS>BOND
     1     1     2    1
     2     1     5    1
     3     1     6    1
     4     1     7    1
     5     2     3    1
     6     2     4    1
     7     2     8    1
     8     3     9    1
     9     3    10    1
    10     3    11    1
    11     4    12    1

