@<TRIPOS>MOLECULE
DMS_1_A_403
 10 9 0 0 0
SMALL
NO_CHARGES

@<TRIPOS>ATOM
      1 S          21.5440  -20.8440   14.3070 S.o    403  DMS403      0.0000
      2 O          21.7810  -19.4650   13.7980 O.2    403  DMS403      0.0000
      3 C1         20.2730  -20.8620   15.6060 C.3    403  DMS403      0.0000
      4 C2         20.7460  -21.8320   13.0090 C.3    403  DMS403      0.0000
      5 H          20.0861  -21.9072   15.9265 H      403  DMS403      0.0000
      6 H          19.3340  -20.4174   15.2172 H      403  DMS403      0.0000
      7 H          20.6293  -20.2704   16.4739 H      403  DMS403      0.0000
      8 H          20.5405  -22.8518   13.3938 H      403  DMS403      0.0000
      9 H          21.4229  -21.9006   12.1330 H      403  DMS403      0.0000
     10 H          19.7946  -21.3505   12.7030 H      403  DMS403      0.0000
@<TRIPOS>BOND
     1     1     2    2
     2     1     3    1
     3     1     4    1
     4     3     5    1
     5     3     6    1
     6     3     7    1
     7     4     8    1
     8     4     9    1
     9     4    10    1

