@<TRIPOS>MOLECULE
DMS_1_A_402
 10 9 0 0 0
SMALL
NO_CHARGES

@<TRIPOS>ATOM
      1 S          -0.1930  -15.3150   24.5950 S.o    402  DMS402      0.0000
      2 O          -0.5020  -14.6100   23.3090 O.2    402  DMS402      0.0000
      3 C1          0.9340  -16.7020   24.2830 C.3    402  DMS402      0.0000
      4 C2          0.8880  -14.2930   25.6340 C.3    402  DMS402      0.0000
      5 H           1.2034  -17.1857   25.2441 H      402  DMS402      0.0000
      6 H           1.8520  -16.3356   23.7794 H      402  DMS402      0.0000
      7 H           0.4288  -17.4433   23.6307 H      402  DMS402      0.0000
      8 H           1.1569  -14.8520   26.5535 H      402  DMS402      0.0000
      9 H           0.3515  -13.3639   25.9156 H      402  DMS402      0.0000
     10 H           1.8089  -14.0296   25.0745 H      402  DMS402      0.0000
@<TRIPOS>BOND
     1     1     2    2
     2     1     3    1
     3     1     4    1
     4     3     5    1
     5     3     6    1
     6     3     7    1
     7     4     8    1
     8     4     9    1
     9     4    10    1

