@<TRIPOS>MOLECULE
DMS_2_A_404
 10 9 0 0 0
SMALL
NO_CHARGES

@<TRIPOS>ATOM
      1 S          -5.4740    0.4620  -18.0540 S.o    404  DMS404      0.0000
      2 O          -4.7840    1.5870  -18.7600 O.2    404  DMS404      0.0000
      3 C1         -6.4190   -0.2670  -19.3410 C.3    404  DMS404      0.0000
      4 C2         -6.7980    1.2220  -17.2210 C.3    404  DMS404      0.0000
      5 H          -7.1202   -1.0154  -18.9182 H      404  DMS404      0.0000
      6 H          -5.7386   -0.7825  -20.0495 H      404  DMS404      0.0000
      7 H          -6.9944    0.5031  -19.8948 H      404  DMS404      0.0000
      8 H          -7.4891    0.4510  -16.8232 H      404  DMS404      0.0000
      9 H          -7.3564    1.9001  -17.8985 H      404  DMS404      0.0000
     10 H          -6.4051    1.8148  -16.3697 H      404  DMS404      0.0000
@<TRIPOS>BOND
     1     1     2    2
     2     1     3    1
     3     1     4    1
     4     3     5    1
     5     3     6    1
     6     3     7    1
     7     4     8    1
     8     4     9    1
     9     4    10    1

