DMS_2_A_405
  -ISIS-            3D

 10  9  0  0  0  0  0  0  0  0  1 V2000
  -21.2270   14.7240   -8.0990 S   0  0  0  0  0
  -22.6980   14.6890   -8.0160 O   0  0  0  0  0
  -20.7970   13.2820   -9.0260 C   0  0  0  0  0
  -20.6970   14.0660   -6.5510 C   0  0  0  0  0
  -19.7015   13.1136   -8.9806 H   0  0  0  0  0
  -21.0871   13.4304  -10.0864 H   0  0  0  0  0
  -21.3251   12.3884   -8.6343 H   0  0  0  0  0
  -19.6050   13.8721   -6.5740 H   0  0  0  0  0
  -21.2344   13.1242   -6.3164 H   0  0  0  0  0
  -20.9064   14.8041   -5.7497 H   0  0  0  0  0
  1  2  2  0  0  0
  1  3  1  0  0  0
  1  4  1  0  0  0
  3  5  1  0  0  0
  3  6  1  0  0  0
  3  7  1  0  0  0
  4  8  1  0  0  0
  4  9  1  0  0  0
  4 10  1  0  0  0
M  END
$$$$
