DMS_1_A_402
  -ISIS-            3D

 10  9  0  0  0  0  0  0  0  0  1 V2000
    6.2600   -0.9900   -6.2430 S   0  0  0  0  0
    7.2030   -0.6700   -7.3270 O   0  0  0  0  0
    7.2620   -0.9680   -4.7690 C   0  0  0  0  0
    5.9760   -2.7290   -6.3630 C   0  0  0  0  0
    6.6726   -1.3493   -3.9103 H   0  0  0  0  0
    7.5764    0.0738   -4.5541 H   0  0  0  0  0
    8.1644   -1.5987   -4.9059 H   0  0  0  0  0
    5.4046   -3.0779   -5.4788 H   0  0  0  0  0
    6.9395   -3.2762   -6.4175 H   0  0  0  0  0
    5.3861   -2.9435   -7.2776 H   0  0  0  0  0
  1  2  2  0  0  0
  1  3  1  0  0  0
  1  4  1  0  0  0
  3  5  1  0  0  0
  3  6  1  0  0  0
  3  7  1  0  0  0
  4  8  1  0  0  0
  4  9  1  0  0  0
  4 10  1  0  0  0
M  END
$$$$
