@<TRIPOS>MOLECULE
DMS_2_A_405
 10 9 0 0 0
SMALL
NO_CHARGES

@<TRIPOS>ATOM
      1 S         -21.2270   14.7240   -8.0990 S.o    405  DMS405      0.0000
      2 O         -22.6980   14.6890   -8.0160 O.2    405  DMS405      0.0000
      3 C1        -20.7970   13.2820   -9.0260 C.3    405  DMS405      0.0000
      4 C2        -20.6970   14.0660   -6.5510 C.3    405  DMS405      0.0000
      5 H         -19.7015   13.1136   -8.9806 H      405  DMS405      0.0000
      6 H         -21.0871   13.4304  -10.0864 H      405  DMS405      0.0000
      7 H         -21.3251   12.3884   -8.6343 H      405  DMS405      0.0000
      8 H         -19.6050   13.8721   -6.5740 H      405  DMS405      0.0000
      9 H         -21.2344   13.1242   -6.3164 H      405  DMS405      0.0000
     10 H         -20.9064   14.8041   -5.7497 H      405  DMS405      0.0000
@<TRIPOS>BOND
     1     1     2    2
     2     1     3    1
     3     1     4    1
     4     3     5    1
     5     3     6    1
     6     3     7    1
     7     4     8    1
     8     4     9    1
     9     4    10    1

