@<TRIPOS>MOLECULE
DMS_1_A_402
 10 9 0 0 0
SMALL
NO_CHARGES

@<TRIPOS>ATOM
      1 S           6.2600   -0.9900   -6.2430 S.o    402  DMS402      0.0000
      2 O           7.2030   -0.6700   -7.3270 O.2    402  DMS402      0.0000
      3 C1          7.2620   -0.9680   -4.7690 C.3    402  DMS402      0.0000
      4 C2          5.9760   -2.7290   -6.3630 C.3    402  DMS402      0.0000
      5 H           6.6726   -1.3493   -3.9103 H      402  DMS402      0.0000
      6 H           7.5764    0.0738   -4.5541 H      402  DMS402      0.0000
      7 H           8.1644   -1.5987   -4.9059 H      402  DMS402      0.0000
      8 H           5.4046   -3.0779   -5.4788 H      402  DMS402      0.0000
      9 H           6.9395   -3.2762   -6.4175 H      402  DMS402      0.0000
     10 H           5.3861   -2.9435   -7.2776 H      402  DMS402      0.0000
@<TRIPOS>BOND
     1     1     2    2
     2     1     3    1
     3     1     4    1
     4     3     5    1
     5     3     6    1
     6     3     7    1
     7     4     8    1
     8     4     9    1
     9     4    10    1

