@<TRIPOS>MOLECULE
DMS_2_A_402
 10 9 0 0 0
SMALL
NO_CHARGES

@<TRIPOS>ATOM
      1 S          -6.1210   -1.0210    6.2510 S.o    402  DMS402      0.0000
      2 O          -7.0580   -0.7980    7.3870 O.2    402  DMS402      0.0000
      3 C1         -7.0640   -0.8960    4.7310 C.3    402  DMS402      0.0000
      4 C2         -5.7760   -2.7610    6.1800 C.3    402  DMS402      0.0000
      5 H          -6.4241   -1.1736    3.8686 H      402  DMS402      0.0000
      6 H          -7.4096    0.1499    4.6009 H      402  DMS402      0.0000
      7 H          -7.9463   -1.5673    4.7706 H      402  DMS402      0.0000
      8 H          -5.1732   -2.9887    5.2772 H      402  DMS402      0.0000
      9 H          -6.7214   -3.3406    6.1497 H      402  DMS402      0.0000
     10 H          -5.1993   -3.0574    7.0800 H      402  DMS402      0.0000
@<TRIPOS>BOND
     1     1     2    2
     2     1     3    1
     3     1     4    1
     4     3     5    1
     5     3     6    1
     6     3     7    1
     7     4     8    1
     8     4     9    1
     9     4    10    1

