@<TRIPOS>MOLECULE
APR_1_A_201
 58 61 0 0 0
SMALL
NO_CHARGES

@<TRIPOS>ATOM
      1 N1          4.3270   19.0140   75.5980 N.ar   201  APR201      0.0000
      2 C2          3.9050   17.8750   74.9690 C.ar   201  APR201      0.0000
      3 N3          2.9220   17.9240   73.9990 N.ar   201  APR201      0.0000
      4 C4          2.3700   19.1360   73.6720 C.ar   201  APR201      0.0000
      5 C5          2.7940   20.2590   74.2950 C.ar   201  APR201      0.0000
      6 C6          3.7760   20.2060   75.2720 C.ar   201  APR201      0.0000
      7 N6          4.3130   21.3040   76.0010 N.3    201  APR201      0.0000
      8 N7          2.0980   21.3220   73.8020 N.ar   201  APR201      0.0000
      9 C8          1.2420   20.8490   72.8580 C.ar   201  APR201      0.0000
     10 N9          1.3930   19.5020   72.7690 N.ar   201  APR201      0.0000
     11 C1'         0.7910   18.5080   71.9830 C.3    201  APR201      0.0000
     12 C2'        -0.2000   18.9770   71.2440 C.3    201  APR201      0.0000
     13 O2'        -1.4770   18.9370   71.8910 O.3    201  APR201      0.0000
     14 C3'        -0.1980   18.0150   69.9220 C.3    201  APR201      0.0000
     15 O3'        -0.8240   16.7620   70.2820 O.3    201  APR201      0.0000
     16 O4'         1.8830   18.1590   70.9110 O.3    201  APR201      0.0000
     17 C4'         1.1240   17.8160   69.6300 C.3    201  APR201      0.0000
     18 C5'         1.6480   18.7340   68.4980 C.3    201  APR201      0.0000
     19 O5'         0.9900   19.9810   68.7830 O.3    201  APR201      0.0000
     20 PA          1.2160   21.3420   68.0220 P.3    201  APR201      0.0000
     21 O1A        -0.1730   21.9070   67.7300 O.co2  201  APR201      0.0000
     22 O2A         2.0490   22.2820   68.8810 O.co2  201  APR201      0.0000
     23 O3A         2.0020   21.0210   66.7130 O.3    201  APR201      0.0000
     24 PB          1.5860   20.7990   65.1800 P.3    201  APR201      0.0000
     25 O1B         2.8270   20.2370   64.4860 O.co2  201  APR201      0.0000
     26 O2B         0.3050   19.9750   65.1030 O.co2  201  APR201      0.0000
     27 O5D         1.2600   22.2380   64.6300 O.3    201  APR201      0.0000
     28 C5D         2.3440   23.1190   64.2740 C.3    201  APR201      0.0000
     29 O4D         1.2580   24.9650   65.5600 O.3    201  APR201      0.0000
     30 O1D         2.0340   26.1760   67.2700 O.3    201  APR201      0.0000
     31 C1D         1.8300   26.1140   65.8740 C.3    201  APR201      0.0000
     32 O2D         3.7340   27.3310   65.0690 O.3    201  APR201      0.0000
     33 C2D         3.1900   26.0590   65.1660 C.3    201  APR201      0.0000
     34 O3D         2.1720   26.5470   62.9770 O.3    201  APR201      0.0000
     35 C3D         2.7730   25.4650   63.8230 C.3    201  APR201      0.0000
     36 C4D         1.8340   24.5400   64.1450 C.3    201  APR201      0.0000
     37 H           4.3548   16.9062   75.2371 H      201  APR201      0.0000
     38 H           5.0437   21.0726   76.6853 H      201  APR201      0.0000
     39 H           3.9164   22.2246   75.7707 H      201  APR201      0.0000
     40 H           0.5379   21.4379   72.2588 H      201  APR201      0.0000
     41 H           0.5258   17.5895   72.5468 H      201  APR201      0.0000
     42 H          -0.0259   20.0061   70.8716 H      201  APR201      0.0000
     43 H          -1.5132   19.6280   72.5392 H      201  APR201      0.0000
     44 H          -0.7844   18.4709   69.0974 H      201  APR201      0.0000
     45 H          -1.6005   16.9821   70.7845 H      201  APR201      0.0000
     46 H           1.3445   16.7631   69.3541 H      201  APR201      0.0000
     47 H           1.3421   18.3536   67.5017 H      201  APR201      0.0000
     48 H           2.7515   18.8392   68.5321 H      201  APR201      0.0000
     49 H           2.7847   22.7822   63.3115 H      201  APR201      0.0000
     50 H           3.1440   23.0734   65.0432 H      201  APR201      0.0000
     51 H           2.2454   25.3110   67.5969 H      201  APR201      0.0000
     52 H           1.2176   26.9693   65.5292 H      201  APR201      0.0000
     53 H           3.8267   27.6734   65.9490 H      201  APR201      0.0000
     54 H           3.8911   25.3737   65.6877 H      201  APR201      0.0000
     55 H           2.6758   27.3332   63.1556 H      201  APR201      0.0000
     56 H           3.6462   25.0412   63.2851 H      201  APR201      0.0000
     57 H           1.0017   24.5409   63.4082 H      201  APR201      0.0000
     58 H          -0.7392   22.0793   68.6944 H      201  APR201      0.0000
@<TRIPOS>BOND
     1     1     2   ar
     2     1     6   ar
     3     2     3   ar
     4     2    37    1
     5     3     4   ar
     6     4     5   ar
     7     4    10   ar
     8     5     6   ar
     9     5     8   ar
    10     6     7    1
    11     7    38    1
    12     7    39    1
    13     8     9   ar
    14     9    10   ar
    15     9    40    1
    16    10    11    1
    17    11    12    1
    18    11    16    1
    19    11    41    1
    20    12    13    1
    21    12    14    1
    22    12    42    1
    23    13    43    1
    24    14    15    1
    25    14    17    1
    26    14    44    1
    27    15    45    1
    28    16    17    1
    29    17    18    1
    30    17    46    1
    31    18    19    1
    32    18    47    1
    33    18    48    1
    34    19    20    1
    35    20    21    1
    36    20    22    2
    37    20    23    1
    38    23    24    1
    39    24    25    2
    40    24    26    2
    41    24    27    1
    42    27    28    1
    43    28    36    1
    44    28    49    1
    45    28    50    1
    46    29    31    1
    47    29    36    1
    48    30    31    1
    49    30    51    1
    50    31    33    1
    51    31    52    1
    52    32    33    1
    53    32    53    1
    54    33    35    1
    55    33    54    1
    56    34    35    1
    57    34    55    1
    58    35    36    1
    59    35    56    1
    60    36    57    1
    61    21    58    1

