ACY_1_B_407
  -ISIS-            3D

  7  6  0  0  0  0  0  0  0  0  1 V2000
  -72.7330    7.5180   31.2320 C   0  0  0  0  0
  -71.6880    7.7660   30.6470 O   0  0  0  0  0
  -73.9120    7.6980   30.7520 O   0  0  0  0  0
  -72.7440    6.9450   32.6560 C   0  0  0  0  0
  -73.7778    6.7808   33.0330 H   0  0  0  0  0
  -72.2319    7.6363   33.3613 H   0  0  0  0  0
  -72.2117    5.9688   32.6904 H   0  0  0  0  0
  1  2  2  0  0  0
  1  3  2  0  0  0
  1  4  1  0  0  0
  4  5  1  0  0  0
  4  6  1  0  0  0
  4  7  1  0  0  0
M  END
$$$$
