ACY_1_B_408
  -ISIS-            3D

  7  6  0  0  0  0  0  0  0  0  1 V2000
  -33.7640   22.9410   36.4740 C   0  0  0  0  0
  -34.1140   23.5830   35.4930 O   0  0  0  0  0
  -34.4460   22.8090   37.5540 O   0  0  0  0  0
  -32.4190   22.1990   36.5140 C   0  0  0  0  0
  -32.2621   21.6681   37.4794 H   0  0  0  0  0
  -31.5747   22.9100   36.3767 H   0  0  0  0  0
  -32.3631   21.4444   35.6988 H   0  0  0  0  0
  1  2  2  0  0  0
  1  3  2  0  0  0
  1  4  1  0  0  0
  4  5  1  0  0  0
  4  6  1  0  0  0
  4  7  1  0  0  0
M  END
$$$$
