ACY_3_B_408
  -ISIS-            3D

  7  6  0  0  0  0  0  0  0  0  1 V2000
 -113.7890   17.7690   36.4740 C   0  0  0  0  0
 -113.0590   17.7520   35.4930 O   0  0  0  0  0
 -113.5620   18.4260   37.5540 O   0  0  0  0  0
 -115.1040   16.9760   36.5140 C   0  0  0  0  0
 -115.6412   17.1046   37.4796 H   0  0  0  0  0
 -114.9110   15.8891   36.3752 H   0  0  0  0  0
 -115.7861   17.3063   35.6995 H   0  0  0  0  0
  1  2  2  0  0  0
  1  3  2  0  0  0
  1  4  1  0  0  0
  4  5  1  0  0  0
  4  6  1  0  0  0
  4  7  1  0  0  0
M  END
$$$$
