@<TRIPOS>MOLECULE
ACY_1_B_408
 7 6 0 0 0
SMALL
NO_CHARGES

@<TRIPOS>ATOM
      1 C         -33.7640   22.9410   36.4740 C.2    408  ACY408      0.0000
      2 O         -34.1140   23.5830   35.4930 O.co2  408  ACY408     -0.5000
      3 OXT       -34.4460   22.8090   37.5540 O.co2  408  ACY408     -0.5000
      4 CH3       -32.4190   22.1990   36.5140 C.3    408  ACY408      0.0000
      5 H         -32.2621   21.6681   37.4794 H      408  ACY408      0.0000
      6 H         -31.5747   22.9100   36.3767 H      408  ACY408      0.0000
      7 H         -32.3631   21.4444   35.6988 H      408  ACY408      0.0000
@<TRIPOS>BOND
     1     1     2   ar
     2     1     3   ar
     3     1     4    1
     4     4     5    1
     5     4     6    1
     6     4     7    1

