ACY_2_A_406
  -ISIS-            3D

  7  6  0  0  0  0  0  0  0  0  1 V2000
  -62.6330   47.0360  -29.5330 C   0  0  0  0  0
  -62.5760   47.5980  -30.6180 O   0  0  0  0  0
  -61.6600   46.9310  -28.7010 O   0  0  0  0  0
  -63.9230   46.3710  -29.0380 C   0  0  0  0  0
  -63.7972   45.9089  -28.0342 H   0  0  0  0  0
  -64.2476   45.5719  -29.7409 H   0  0  0  0  0
  -64.7467   47.1157  -28.9675 H   0  0  0  0  0
  1  2  2  0  0  0
  1  3  2  0  0  0
  1  4  1  0  0  0
  4  5  1  0  0  0
  4  6  1  0  0  0
  4  7  1  0  0  0
M  END
$$$$
