ACY_1_A_406
  -ISIS-            3D

  7  6  0  0  0  0  0  0  0  0  1 V2000
  -78.4890   30.7240  -29.5330 C   0  0  0  0  0
  -78.0300   30.3940  -30.6180 O   0  0  0  0  0
  -79.0660   29.9340  -28.7010 O   0  0  0  0  0
  -78.4190   32.1730  -29.0380 C   0  0  0  0  0
  -78.8829   32.2962  -28.0340 H   0  0  0  0  0
  -78.9473   32.8539  -29.7412 H   0  0  0  0  0
  -77.3623   32.5128  -28.9670 H   0  0  0  0  0
  1  2  2  0  0  0
  1  3  2  0  0  0
  1  4  1  0  0  0
  4  5  1  0  0  0
  4  6  1  0  0  0
  4  7  1  0  0  0
M  END
$$$$
