@<TRIPOS>MOLECULE
ACY_3_B_407
 7 6 0 0 0
SMALL
NO_CHARGES

@<TRIPOS>ATOM
      1 C        -107.6620   59.2300   31.2320 C.2    407  ACY407      0.0000
      2 O        -107.9700   58.2000   30.6470 O.co2  407  ACY407     -0.5000
      3 OXT      -106.9160   60.1600   30.7520 O.co2  407  ACY407     -0.5000
      4 CH3      -108.1530   59.5260   32.6560 C.3    407  ACY407      0.0000
      5 H        -107.7785   60.5035   33.0329 H      407  ACY407      0.0000
      6 H        -107.8103   58.7370   33.3614 H      407  ACY407      0.0000
      7 H        -109.2646   59.5529   32.6903 H      407  ACY407      0.0000
@<TRIPOS>BOND
     1     1     2   ar
     2     1     3   ar
     3     1     4    1
     4     4     5    1
     5     4     6    1
     6     4     7    1

