@<TRIPOS>MOLECULE
ACY_2_A_406
 7 6 0 0 0
SMALL
NO_CHARGES

@<TRIPOS>ATOM
      1 C         -62.6330   47.0360  -29.5330 C.2    406  ACY406      0.0000
      2 O         -62.5760   47.5980  -30.6180 O.co2  406  ACY406     -0.5000
      3 OXT       -61.6600   46.9310  -28.7010 O.co2  406  ACY406     -0.5000
      4 CH3       -63.9230   46.3710  -29.0380 C.3    406  ACY406      0.0000
      5 H         -63.7972   45.9089  -28.0342 H      406  ACY406      0.0000
      6 H         -64.2476   45.5719  -29.7409 H      406  ACY406      0.0000
      7 H         -64.7467   47.1157  -28.9675 H      406  ACY406      0.0000
@<TRIPOS>BOND
     1     1     2   ar
     2     1     3   ar
     3     1     4    1
     4     4     5    1
     5     4     6    1
     6     4     7    1

