@<TRIPOS>MOLECULE
FMT_1_A_7107
 3 2 0 0 0
SMALL
NO_CHARGES

@<TRIPOS>ATOM
      1 C         101.1730    7.3610  -10.0510 C.2   7107  FMT7107      0.0000
      2 O1        100.7940    6.6680   -9.1300 O.2   7107  FMT7107      0.0000
      3 O2        102.3850    7.8010  -10.1950 O.2   7107  FMT7107     -0.5000
@<TRIPOS>BOND
     1     1     2   ar
     2     1     3   ar

