@<TRIPOS>MOLECULE
FMT_1_A_7108
 4 3 0 0 0
SMALL
NO_CHARGES

@<TRIPOS>ATOM
      1 C          89.1380   37.4800   -3.0570 C.2   7108  FMT7108      0.0000
      2 O1         89.0420   37.8510   -4.2100 O.2   7108  FMT7108     -0.5000
      3 O2         90.0690   37.8530   -2.2280 O.3   7108  FMT7108     -0.5000
      4 H          88.3456   36.7399   -2.6610 H     7108  FMT7108      0.0000
@<TRIPOS>BOND
     1     1     2   ar
     2     1     3   ar
     3     1     4    1

