@<TRIPOS>MOLECULE
SAM_1_A_7101
 50 52 0 0 0
SMALL
NO_CHARGES

@<TRIPOS>ATOM
      1 N          80.6030   18.4800   -0.8310 N.3   7101  SAM7101      1.0000
      2 CA         79.2430   17.9570   -0.5980 C.3   7101  SAM7101      0.0000
      3 C          78.2420   18.8380   -1.3480 C.2   7101  SAM7101      0.0000
      4 O          78.5560   19.2860   -2.4660 O.co2 7101  SAM7101     -0.5000
      5 OXT        77.1420   19.1040   -0.8760 O.co2 7101  SAM7101     -0.5000
      6 CB         78.9280   17.9250    0.9010 C.3   7101  SAM7101      0.0000
      7 CG         79.9140   17.0590    1.6690 C.3   7101  SAM7101      0.0000
      8 SD         79.3980   16.7230    3.3670 S.3   7101  SAM7101      0.0000
      9 CE         79.5990   18.3230    4.1200 C.3   7101  SAM7101      0.0000
     10 C5'        80.9000   15.8740    3.9270 C.3   7101  SAM7101      0.0000
     11 C4'        81.0470   14.5000    3.3020 C.3   7101  SAM7101      0.0000
     12 O4'        82.3130   13.9070    3.6770 O.3   7101  SAM7101      0.0000
     13 C3'        79.9760   13.4870    3.7170 C.3   7101  SAM7101      0.0000
     14 O3'        79.1620   13.1690    2.5950 O.3   7101  SAM7101      0.0000
     15 C2'        80.7760   12.2730    4.2140 C.3   7101  SAM7101      0.0000
     16 O2'        80.2530   11.0360    3.7860 O.3   7101  SAM7101      0.0000
     17 C1'        82.1370   12.5170    3.5760 C.3   7101  SAM7101      0.0000
     18 N9         83.2300   11.7990    4.2280 N.ar  7101  SAM7101      0.0000
     19 C8         83.6170   11.8840    5.5400 C.ar  7101  SAM7101      0.0000
     20 N7         84.6090   11.0850    5.8440 N.ar  7101  SAM7101      0.0000
     21 C5         84.8870   10.4170    4.6620 C.ar  7101  SAM7101      0.0000
     22 C6         85.8330    9.4280    4.3310 C.ar  7101  SAM7101      0.0000
     23 N6         86.6970    8.9130    5.1990 N.pl3 7101  SAM7101      0.0000
     24 N1         85.8470    8.9700    3.0560 N.ar  7101  SAM7101      0.0000
     25 C2         84.9720    9.4900    2.1880 C.ar  7101  SAM7101      0.0000
     26 N3         84.0320   10.4090    2.3900 N.ar  7101  SAM7101      0.0000
     27 C4         84.0410   10.8450    3.6600 C.ar  7101  SAM7101      0.0000
     28 H          81.3062   17.8723   -0.4234 H     7101  SAM7101      0.0000
     29 H          80.7100   19.4085   -0.4321 H     7101  SAM7101      0.0000
     30 H          79.1700   16.9249   -1.0168 H     7101  SAM7101      0.0000
     31 H          77.9000   17.5181    1.0447 H     7101  SAM7101      0.0000
     32 H          78.9264   18.9597    1.3136 H     7101  SAM7101      0.0000
     33 H          80.9214   17.5298    1.6907 H     7101  SAM7101      0.0000
     34 H          80.0136   16.0821    1.1467 H     7101  SAM7101      0.0000
     35 H          79.5138   18.2388    5.2251 H     7101  SAM7101      0.0000
     36 H          78.8060   19.0220    3.7778 H     7101  SAM7101      0.0000
     37 H          80.5837   18.7833    3.8897 H     7101  SAM7101      0.0000
     38 H          80.8611   15.7863    5.0350 H     7101  SAM7101      0.0000
     39 H          81.7901   16.4972    3.6908 H     7101  SAM7101      0.0000
     40 H          81.0490   14.5942    2.1950 H     7101  SAM7101      0.0000
     41 H          79.3389   13.8761    4.5381 H     7101  SAM7101      0.0000
     42 H          78.9238   12.2526    2.6771 H     7101  SAM7101      0.0000
     43 H          80.8474   12.3055    5.3219 H     7101  SAM7101      0.0000
     44 H          80.8722   10.3601    4.0309 H     7101  SAM7101      0.0000
     45 H          82.1212   12.2213    2.5047 H     7101  SAM7101      0.0000
     46 H          83.2042   12.5274    6.3281 H     7101  SAM7101      0.0000
     47 H          85.0282    9.0873    1.1619 H     7101  SAM7101      0.0000
     48 H          87.3237    8.1915    4.8216 H     7101  SAM7101      0.0000
     49 H          86.6715    9.2712    6.1622 H     7101  SAM7101      0.0000
     50 H          80.8066   18.5352   -1.8246 H     7101  SAM7101      0.0000
@<TRIPOS>BOND
     1     1     2    1
     2     1    28    1
     3     1    29    1
     4     2     3    1
     5     2     6    1
     6     2    30    1
     7     3     4   ar
     8     3     5   ar
     9     6     7    1
    10     6    31    1
    11     6    32    1
    12     7     8    1
    13     7    33    1
    14     7    34    1
    15     8     9    1
    16     8    10    1
    17     9    35    1
    18     9    36    1
    19     9    37    1
    20    10    11    1
    21    10    38    1
    22    10    39    1
    23    11    12    1
    24    11    13    1
    25    11    40    1
    26    12    17    1
    27    13    14    1
    28    13    15    1
    29    13    41    1
    30    14    42    1
    31    15    16    1
    32    15    17    1
    33    15    43    1
    34    16    44    1
    35    17    18    1
    36    17    45    1
    37    18    19   ar
    38    18    27   ar
    39    19    20   ar
    40    19    46    1
    41    20    21   ar
    42    21    22   ar
    43    21    27   ar
    44    22    23    1
    45    22    24   ar
    46    23    48    1
    47    23    49    1
    48    24    25   ar
    49    25    26   ar
    50    25    47    1
    51    26    27   ar
    52     1    50    1

