@<TRIPOS>MOLECULE
DMS_1_A_202
 10 9 0 0 0
SMALL
NO_CHARGES

@<TRIPOS>ATOM
      1 S          -0.7930    9.4280   -7.3730 S.o    202  DMS202      0.0000
      2 O          -0.6920    9.5370   -8.8310 O.2    202  DMS202      0.0000
      3 C1          0.2140    8.0640   -6.9450 C.3    202  DMS202      0.0000
      4 C2         -2.3330    8.6820   -7.1870 C.3    202  DMS202      0.0000
      5 H           0.0354    7.7785   -5.8881 H      202  DMS202      0.0000
      6 H           1.2812    8.3440   -7.0603 H      202  DMS202      0.0000
      7 H          -0.0006    7.1950   -7.6005 H      202  DMS202      0.0000
      8 H          -2.4844    8.3824   -6.1297 H      202  DMS202      0.0000
      9 H          -2.4223    7.7849   -7.8338 H      202  DMS202      0.0000
     10 H          -3.1308    9.4015   -7.4639 H      202  DMS202      0.0000
@<TRIPOS>BOND
     1     1     2    2
     2     1     3    1
     3     1     4    1
     4     3     5    1
     5     3     6    1
     6     3     7    1
     7     4     8    1
     8     4     9    1
     9     4    10    1

