@<TRIPOS>MOLECULE
K36_1_A_401
 60 61 0 0 0
SMALL
NO_CHARGES

@<TRIPOS>ATOM
      1 C7        -21.4600  -30.1630    1.3110 C.3    401  K36401      0.0000
      2 O8        -21.4400  -28.8790    0.6350 O.3    401  K36401      0.0000
      3 C9        -20.7610  -27.8920    1.2380 C.2    401  K36401      0.0000
      4 O10       -20.1870  -28.0040    2.2970 O.2    401  K36401      0.0000
      5 C1        -22.3750  -30.1460    2.5030 C.ar   401  K36401      0.0000
      6 C2        -23.3800  -29.2020    2.6150 C.ar   401  K36401      0.0000
      7 C3        -24.2220  -29.1940    3.7160 C.ar   401  K36401      0.0000
      8 C4        -24.0690  -30.1310    4.7090 C.ar   401  K36401      0.0000
      9 C5        -23.0750  -31.0770    4.6090 C.ar   401  K36401      0.0000
     10 C6        -22.2300  -31.0840    3.5100 C.ar   401  K36401      0.0000
     11 N11       -20.8000  -26.7730    0.4940 N.am   401  K36401      0.0000
     12 C12       -20.2070  -25.5370    0.9750 C.3    401  K36401      0.0000
     13 C17       -20.8700  -25.0390    2.2600 C.2    401  K36401      0.0000
     14 O18       -22.0890  -25.1220    2.4020 O.2    401  K36401      0.0000
     15 C13       -20.2700  -24.4590   -0.1050 C.3    401  K36401      0.0000
     16 C14       -19.5640  -24.8030   -1.4160 C.3    401  K36401      0.0000
     17 C15       -19.7660  -23.7020   -2.4450 C.3    401  K36401      0.0000
     18 C16       -18.0820  -25.0510   -1.1850 C.3    401  K36401      0.0000
     19 N19       -20.0580  -24.5300    3.1920 N.am   401  K36401      0.0000
     20 C20       -20.5390  -23.9830    4.4620 C.3    401  K36401      0.0000
     21 C21       -20.1590  -22.5150    4.5550 C.3    401  K36401      0.0000
     22 O22       -20.6490  -21.9130    5.7310 O.3    401  K36401      0.0000
     23 C24       -19.9660  -24.7860    5.6340 C.3    401  K36401      0.0000
     24 C25       -20.4950  -26.2190    5.6380 C.3    401  K36401      0.0000
     25 C26       -21.9730  -26.3990    5.9470 C.3    401  K36401      0.0000
     26 C27       -22.0540  -27.8420    6.4190 C.3    401  K36401      0.0000
     27 N28       -20.7440  -28.0430    7.0290 N.am   401  K36401      0.0000
     28 C29       -19.8430  -27.1420    6.6510 C.2    401  K36401      0.0000
     29 O30       -18.6660  -27.0820    7.0420 O.2    401  K36401      0.0000
     30 H         -20.4347  -30.4693    1.6063 H      401  K36401      0.0000
     31 H         -21.8227  -30.9355    0.6010 H      401  K36401      0.0000
     32 H         -23.5277  -28.4403    1.8313 H      401  K36401      0.0000
     33 H         -25.0169  -28.4323    3.7922 H      401  K36401      0.0000
     34 H         -24.7419  -30.1253    5.5837 H      401  K36401      0.0000
     35 H         -22.9488  -31.8314    5.4045 H      401  K36401      0.0000
     36 H         -21.4366  -31.8483    3.4452 H      401  K36401      0.0000
     37 H         -21.2962  -26.8015   -0.4052 H      401  K36401      0.0000
     38 H         -19.1332  -25.7273    1.2099 H      401  K36401      0.0000
     39 H         -19.8372  -23.5158    0.3035 H      401  K36401      0.0000
     40 H         -21.3415  -24.2346   -0.3186 H      401  K36401      0.0000
     41 H         -20.0096  -25.7362   -1.8374 H      401  K36401      0.0000
     42 H         -19.2926  -23.9563   -3.4198 H      401  K36401      0.0000
     43 H         -19.3291  -22.7344   -2.1106 H      401  K36401      0.0000
     44 H         -20.8452  -23.5220   -2.6500 H      401  K36401      0.0000
     45 H         -17.5436  -25.2204   -2.1444 H      401  K36401      0.0000
     46 H         -17.8930  -25.9530   -0.5630 H      401  K36401      0.0000
     47 H         -17.5865  -24.1898   -0.6835 H      401  K36401      0.0000
     48 H         -19.0426  -24.5230    3.0230 H      401  K36401      0.0000
     49 H         -21.6512  -24.0371    4.5168 H      401  K36401      0.0000
     50 H         -20.5410  -21.9604    3.6698 H      401  K36401      0.0000
     51 H         -19.0535  -22.4062    4.5399 H      401  K36401      0.0000
     52 H         -21.5745  -21.7369    5.6236 H      401  K36401      0.0000
     53 H         -20.2270  -24.3005    6.6018 H      401  K36401      0.0000
     54 H         -18.8534  -24.7923    5.5708 H      401  K36401      0.0000
     55 H         -20.2886  -26.6729    4.6387 H      401  K36401      0.0000
     56 H         -22.6278  -26.2118    5.0672 H      401  K36401      0.0000
     57 H         -22.2835  -25.7093    6.7656 H      401  K36401      0.0000
     58 H         -22.1934  -28.5268    5.5552 H      401  K36401      0.0000
     59 H         -22.8932  -27.9950    7.1335 H      401  K36401      0.0000
     60 H         -20.5163  -28.7988    7.6875 H      401  K36401      0.0000
@<TRIPOS>BOND
     1     1     2    1
     2     1     5    1
     3     1    30    1
     4     1    31    1
     5     2     3    1
     6     3     4    2
     7     3    11    1
     8     5     6   ar
     9     5    10   ar
    10     6     7   ar
    11     6    32    1
    12     7     8   ar
    13     7    33    1
    14     8     9   ar
    15     8    34    1
    16     9    10   ar
    17     9    35    1
    18    10    36    1
    19    11    12    1
    20    11    37    1
    21    12    13    1
    22    12    15    1
    23    12    38    1
    24    13    14    2
    25    13    19    1
    26    15    16    1
    27    15    39    1
    28    15    40    1
    29    16    17    1
    30    16    18    1
    31    16    41    1
    32    17    42    1
    33    17    43    1
    34    17    44    1
    35    18    45    1
    36    18    46    1
    37    18    47    1
    38    19    20    1
    39    19    48    1
    40    20    21    1
    41    20    23    1
    42    20    49    1
    43    21    22    1
    44    21    50    1
    45    21    51    1
    46    22    52    1
    47    23    24    1
    48    23    53    1
    49    23    54    1
    50    24    25    1
    51    24    28    1
    52    24    55    1
    53    25    26    1
    54    25    56    1
    55    25    57    1
    56    26    27    1
    57    26    58    1
    58    26    59    1
    59    27    28    1
    60    27    60    1
    61    28    29    2

