K36_1_A_401
  -ISIS-            3D

 60 61  0  0  0  0  0  0  0  0  1 V2000
  -21.4600  -30.1630    1.3110 C   0  0  0  0  0
  -21.4400  -28.8790    0.6350 O   0  0  0  0  0
  -20.7610  -27.8920    1.2380 C   0  0  0  0  0
  -20.1870  -28.0040    2.2970 O   0  0  0  0  0
  -22.3750  -30.1460    2.5030 C   0  0  0  0  0
  -23.3800  -29.2020    2.6150 C   0  0  0  0  0
  -24.2220  -29.1940    3.7160 C   0  0  0  0  0
  -24.0690  -30.1310    4.7090 C   0  0  0  0  0
  -23.0750  -31.0770    4.6090 C   0  0  0  0  0
  -22.2300  -31.0840    3.5100 C   0  0  0  0  0
  -20.8000  -26.7730    0.4940 N   0  0  0  0  0
  -20.2070  -25.5370    0.9750 C   0  0  0  0  0
  -20.8700  -25.0390    2.2600 C   0  0  0  0  0
  -22.0890  -25.1220    2.4020 O   0  0  0  0  0
  -20.2700  -24.4590   -0.1050 C   0  0  0  0  0
  -19.5640  -24.8030   -1.4160 C   0  0  0  0  0
  -19.7660  -23.7020   -2.4450 C   0  0  0  0  0
  -18.0820  -25.0510   -1.1850 C   0  0  0  0  0
  -20.0580  -24.5300    3.1920 N   0  0  0  0  0
  -20.5390  -23.9830    4.4620 C   0  0  0  0  0
  -20.1590  -22.5150    4.5550 C   0  0  0  0  0
  -20.6490  -21.9130    5.7310 O   0  0  0  0  0
  -19.9660  -24.7860    5.6340 C   0  0  0  0  0
  -20.4950  -26.2190    5.6380 C   0  0  0  0  0
  -21.9730  -26.3990    5.9470 C   0  0  0  0  0
  -22.0540  -27.8420    6.4190 C   0  0  0  0  0
  -20.7440  -28.0430    7.0290 N   0  0  0  0  0
  -19.8430  -27.1420    6.6510 C   0  0  0  0  0
  -18.6660  -27.0820    7.0420 O   0  0  0  0  0
  -20.4347  -30.4693    1.6063 H   0  0  0  0  0
  -21.8227  -30.9355    0.6010 H   0  0  0  0  0
  -23.5277  -28.4403    1.8313 H   0  0  0  0  0
  -25.0169  -28.4323    3.7922 H   0  0  0  0  0
  -24.7419  -30.1253    5.5837 H   0  0  0  0  0
  -22.9488  -31.8314    5.4045 H   0  0  0  0  0
  -21.4366  -31.8483    3.4452 H   0  0  0  0  0
  -21.2962  -26.8015   -0.4052 H   0  0  0  0  0
  -19.1332  -25.7273    1.2099 H   0  0  0  0  0
  -19.8372  -23.5158    0.3035 H   0  0  0  0  0
  -21.3415  -24.2346   -0.3186 H   0  0  0  0  0
  -20.0096  -25.7362   -1.8374 H   0  0  0  0  0
  -19.2926  -23.9563   -3.4198 H   0  0  0  0  0
  -19.3291  -22.7344   -2.1106 H   0  0  0  0  0
  -20.8452  -23.5220   -2.6500 H   0  0  0  0  0
  -17.5436  -25.2204   -2.1444 H   0  0  0  0  0
  -17.8930  -25.9530   -0.5630 H   0  0  0  0  0
  -17.5865  -24.1898   -0.6835 H   0  0  0  0  0
  -19.0426  -24.5230    3.0230 H   0  0  0  0  0
  -21.6512  -24.0371    4.5168 H   0  0  0  0  0
  -20.5410  -21.9604    3.6698 H   0  0  0  0  0
  -19.0535  -22.4062    4.5399 H   0  0  0  0  0
  -21.5745  -21.7369    5.6236 H   0  0  0  0  0
  -20.2270  -24.3005    6.6018 H   0  0  0  0  0
  -18.8534  -24.7923    5.5708 H   0  0  0  0  0
  -20.2886  -26.6729    4.6387 H   0  0  0  0  0
  -22.6278  -26.2118    5.0672 H   0  0  0  0  0
  -22.2835  -25.7093    6.7656 H   0  0  0  0  0
  -22.1934  -28.5268    5.5552 H   0  0  0  0  0
  -22.8932  -27.9950    7.1335 H   0  0  0  0  0
  -20.5163  -28.7988    7.6875 H   0  0  0  0  0
  1  2  1  0  0  0
  1  5  1  0  0  0
  1 30  1  0  0  0
  1 31  1  0  0  0
  2  3  1  0  0  0
  3  4  2  0  0  0
  3 11  1  0  0  0
  5  6  2  0  0  0
  5 10  1  0  0  0
  6  7  1  0  0  0
  6 32  1  0  0  0
  7  8  2  0  0  0
  7 33  1  0  0  0
  8  9  1  0  0  0
  8 34  1  0  0  0
  9 10  2  0  0  0
  9 35  1  0  0  0
 10 36  1  0  0  0
 11 12  1  0  0  0
 11 37  1  0  0  0
 12 13  1  0  0  0
 12 15  1  0  0  0
 12 38  1  0  0  0
 13 14  2  0  0  0
 13 19  1  0  0  0
 15 16  1  0  0  0
 15 39  1  0  0  0
 15 40  1  0  0  0
 16 17  1  0  0  0
 16 18  1  0  0  0
 16 41  1  0  0  0
 17 42  1  0  0  0
 17 43  1  0  0  0
 17 44  1  0  0  0
 18 45  1  0  0  0
 18 46  1  0  0  0
 18 47  1  0  0  0
 19 20  1  0  0  0
 19 48  1  0  0  0
 20 21  1  0  0  0
 20 23  1  0  0  0
 20 49  1  0  0  0
 21 22  1  0  0  0
 21 50  1  0  0  0
 21 51  1  0  0  0
 22 52  1  0  0  0
 23 24  1  0  0  0
 23 53  1  0  0  0
 23 54  1  0  0  0
 24 25  1  0  0  0
 24 28  1  0  0  0
 24 55  1  0  0  0
 25 26  1  0  0  0
 25 56  1  0  0  0
 25 57  1  0  0  0
 26 27  1  0  0  0
 26 58  1  0  0  0
 26 59  1  0  0  0
 27 28  1  0  0  0
 27 60  1  0  0  0
 28 29  2  0  0  0
M  END
$$$$
