@<TRIPOS>MOLECULE
IMD_1_A_404
 9 9 0 0 0
SMALL
NO_CHARGES

@<TRIPOS>ATOM
      1 N1          5.9790    0.0860   20.2410 N.ar   404  IMD404      0.0000
      2 C2          6.9750   -0.4790   19.5070 C.ar   404  IMD404      0.0000
      3 N3          6.9830    0.0720   18.2560 N.ar   404  IMD404      0.0000
      4 C4          5.9840    0.9870   18.2090 C.ar   404  IMD404      0.0000
      5 C5          5.3510    0.9980   19.4540 C.ar   404  IMD404      0.0000
      6 H           5.7450   -0.1386   21.2157 H      404  IMD404      0.0000
      7 H           7.7046   -1.2529   19.7783 H      404  IMD404      0.0000
      8 H           5.8039    1.5578   17.2906 H      404  IMD404      0.0000
      9 H           4.4995    1.6246   19.7572 H      404  IMD404      0.0000
@<TRIPOS>BOND
     1     1     2   ar
     2     1     5   ar
     3     1     6    1
     4     2     3   ar
     5     2     7    1
     6     3     4   ar
     7     4     5   ar
     8     4     8    1
     9     5     9    1

