IMD_2_A_404
  -ISIS-            3D

  9  9  0  0  0  0  0  0  0  0  1 V2000
   -5.9790    0.0860  -20.2410 N   0  0  0  0  0
   -6.9750   -0.4790  -19.5070 C   0  0  0  0  0
   -6.9830    0.0720  -18.2560 N   0  0  0  0  0
   -5.9840    0.9870  -18.2090 C   0  0  0  0  0
   -5.3510    0.9980  -19.4540 C   0  0  0  0  0
   -5.7450   -0.1386  -21.2157 H   0  0  0  0  0
   -7.7046   -1.2529  -19.7783 H   0  0  0  0  0
   -5.8039    1.5578  -17.2906 H   0  0  0  0  0
   -4.4995    1.6246  -19.7572 H   0  0  0  0  0
  1  2  2  0  0  0
  1  5  1  0  0  0
  1  6  1  0  0  0
  2  3  1  0  0  0
  2  7  1  0  0  0
  3  4  1  0  0  0
  4  5  1  0  0  0
  4  8  1  0  0  0
  5  9  1  0  0  0
M  END
$$$$
