@<TRIPOS>MOLECULE
DMS_2_A_501
 10 9 0 0 0
SMALL
NO_CHARGES

@<TRIPOS>ATOM
      1 S          -6.0740   -0.9450    6.5740 S.o    501  DMS501      0.0000
      2 O          -7.0110   -0.4910    7.6470 O.2    501  DMS501      0.0000
      3 C1         -6.9570   -0.9820    4.9910 C.3    501  DMS501      0.0000
      4 C2         -5.6800   -2.7080    6.7740 C.3    501  DMS501      0.0000
      5 H          -6.2821   -1.3653    4.1988 H      501  DMS501      0.0000
      6 H          -7.2805    0.0459    4.7291 H      501  DMS501      0.0000
      7 H          -7.8476   -1.6385    5.0721 H      501  DMS501      0.0000
      8 H          -5.0362   -3.0413    5.9348 H      501  DMS501      0.0000
      9 H          -6.6164   -3.3033    6.7861 H      501  DMS501      0.0000
     10 H          -5.1386   -2.8542    7.7308 H      501  DMS501      0.0000
@<TRIPOS>BOND
     1     1     2    2
     2     1     3    1
     3     1     4    1
     4     3     5    1
     5     3     6    1
     6     3     7    1
     7     4     8    1
     8     4     9    1
     9     4    10    1

