@<TRIPOS>MOLECULE
DMS_1_A_502
 10 9 0 0 0
SMALL
NO_CHARGES

@<TRIPOS>ATOM
      1 S           6.4950    0.0960   18.0770 S.o    502  DMS502      0.0000
      2 O           7.4940    0.9490   17.3620 O.2    502  DMS502      0.0000
      3 C1          5.1870    1.1470   18.7600 C.3    502  DMS502      0.0000
      4 C2          7.2190   -0.5490   19.6110 C.3    502  DMS502      0.0000
      5 H           4.4770    0.5250   19.3424 H      502  DMS502      0.0000
      6 H           4.6431    1.6405   17.9288 H      502  DMS502      0.0000
      7 H           5.6314    1.9209   19.4189 H      502  DMS502      0.0000
      8 H           6.4534   -1.1261   20.1687 H      502  DMS502      0.0000
      9 H           7.5825    0.2911   20.2377 H      502  DMS502      0.0000
     10 H           8.0694   -1.2160   19.3613 H      502  DMS502      0.0000
@<TRIPOS>BOND
     1     1     2    2
     2     1     3    1
     3     1     4    1
     4     3     5    1
     5     3     6    1
     6     3     7    1
     7     4     8    1
     8     4     9    1
     9     4    10    1

