@<TRIPOS>MOLECULE
XP1_1_A_2307
 22 22 0 0 0
SMALL
NO_CHARGES

@<TRIPOS>ATOM
      1 CAG       -19.2470  -40.3620  -20.4190 C.3   2307  XP12307      0.0000
      2 NAF       -18.6060  -41.2770  -19.4380 N.pl3 2307  XP12307      0.0000
      3 CAK       -18.8750  -41.0490  -18.0070 C.3   2307  XP12307      0.0000
      4 CAE       -17.7690  -42.3060  -19.7860 C.ar  2307  XP12307      0.0000
      5 CAJ       -17.4520  -42.5650  -21.1180 C.ar  2307  XP12307      0.0000
      6 CAI       -16.5990  -43.6260  -21.4510 C.ar  2307  XP12307      0.0000
      7 CAD       -16.0400  -44.4240  -20.4350 C.ar  2307  XP12307      0.0000
      8 CAC       -15.1010  -45.5650  -20.8110 C.2   2307  XP12307      0.0000
      9 OAH       -14.6400  -46.3000  -19.9350 O.2   2307  XP12307      0.0000
     10 CAA       -16.3300  -44.1800  -19.0840 C.ar  2307  XP12307      0.0000
     11 CAB       -17.2040  -43.1270  -18.7800 C.ar  2307  XP12307      0.0000
     12 H         -19.8850  -40.9211  -21.1389 H     2307  XP12307      0.0000
     13 H         -18.4870  -39.7937  -21.0000 H     2307  XP12307      0.0000
     14 H         -19.9033  -39.6104  -19.9288 H     2307  XP12307      0.0000
     15 H         -19.3727  -41.9238  -17.5321 H     2307  XP12307      0.0000
     16 H         -19.5577  -40.1862  -17.8467 H     2307  XP12307      0.0000
     17 H         -17.9463  -40.8124  -17.4412 H     2307  XP12307      0.0000
     18 H         -17.8674  -41.9474  -21.9296 H     2307  XP12307      0.0000
     19 H         -16.3664  -43.8248  -22.5107 H     2307  XP12307      0.0000
     20 H         -14.8599  -45.7330  -21.8874 H     2307  XP12307      0.0000
     21 H         -15.8931  -44.7968  -18.2820 H     2307  XP12307      0.0000
     22 H         -17.4261  -42.9639  -17.7148 H     2307  XP12307      0.0000
@<TRIPOS>BOND
     1     1     2    1
     2     1    12    1
     3     1    13    1
     4     1    14    1
     5     2     3    1
     6     2     4    1
     7     3    15    1
     8     3    16    1
     9     3    17    1
    10     4     5   ar
    11     4    11   ar
    12     5     6   ar
    13     5    18    1
    14     6     7   ar
    15     6    19    1
    16     7     8    1
    17     7    10   ar
    18     8     9    2
    19     8    20    1
    20    10    11   ar
    21    10    21    1
    22    11    22    1

