@<TRIPOS>MOLECULE
XP1_2_A_2307
 22 22 0 0 0
SMALL
NO_CHARGES

@<TRIPOS>ATOM
      1 CAG        32.4410  -40.3620  -31.3440 C.3   2307  XP12307      0.0000
      2 NAF        31.8000  -41.2770  -32.3250 N.pl3 2307  XP12307      0.0000
      3 CAK        32.0690  -41.0490  -33.7560 C.3   2307  XP12307      0.0000
      4 CAE        30.9630  -42.3060  -31.9770 C.ar  2307  XP12307      0.0000
      5 CAJ        30.6460  -42.5650  -30.6450 C.ar  2307  XP12307      0.0000
      6 CAI        29.7930  -43.6260  -30.3120 C.ar  2307  XP12307      0.0000
      7 CAD        29.2340  -44.4240  -31.3280 C.ar  2307  XP12307      0.0000
      8 CAC        28.2950  -45.5650  -30.9520 C.2   2307  XP12307      0.0000
      9 OAH        27.8340  -46.3000  -31.8280 O.2   2307  XP12307      0.0000
     10 CAA        29.5240  -44.1800  -32.6790 C.ar  2307  XP12307      0.0000
     11 CAB        30.3980  -43.1270  -32.9830 C.ar  2307  XP12307      0.0000
     12 H          33.0792  -40.9211  -30.6242 H     2307  XP12307      0.0000
     13 H          31.6810  -39.7939  -30.7628 H     2307  XP12307      0.0000
     14 H          33.0971  -39.6103  -31.8342 H     2307  XP12307      0.0000
     15 H          32.5661  -41.9240  -34.2310 H     2307  XP12307      0.0000
     16 H          32.7522  -40.1866  -33.9163 H     2307  XP12307      0.0000
     17 H          31.1404  -40.8118  -34.3217 H     2307  XP12307      0.0000
     18 H          31.0614  -41.9474  -29.8334 H     2307  XP12307      0.0000
     19 H          29.5604  -43.8248  -29.2523 H     2307  XP12307      0.0000
     20 H          28.0539  -45.7330  -29.8756 H     2307  XP12307      0.0000
     21 H          29.0871  -44.7968  -33.4810 H     2307  XP12307      0.0000
     22 H          30.6201  -42.9639  -34.0482 H     2307  XP12307      0.0000
@<TRIPOS>BOND
     1     1     2    1
     2     1    12    1
     3     1    13    1
     4     1    14    1
     5     2     3    1
     6     2     4    1
     7     3    15    1
     8     3    16    1
     9     3    17    1
    10     4     5   ar
    11     4    11   ar
    12     5     6   ar
    13     5    18    1
    14     6     7   ar
    15     6    19    1
    16     7     8    1
    17     7    10   ar
    18     8     9    2
    19     8    20    1
    20    10    11   ar
    21    10    21    1
    22    11    22    1

