@<TRIPOS>MOLECULE
DMS_1_A_403
 10 9 0 0 0
SMALL
NO_CHARGES

@<TRIPOS>ATOM
      1 S           2.4740  -19.2390    8.3020 S.o    403  DMS403      0.0000
      2 O           3.3820  -18.9950    9.4760 O.2    403  DMS403      0.0000
      3 C1          0.9420  -18.4060    8.6710 C.3    403  DMS403      0.0000
      4 C2          1.8930  -20.9070    8.4830 C.3    403  DMS403      0.0000
      5 H           0.1777  -18.6713    7.9119 H      403  DMS403      0.0000
      6 H           1.1067  -17.3093    8.6460 H      403  DMS403      0.0000
      7 H           0.5789  -18.6941    9.6785 H      403  DMS403      0.0000
      8 H           1.1044  -21.1144    7.7308 H      403  DMS403      0.0000
      9 H           1.4833  -21.0657    9.5013 H      403  DMS403      0.0000
     10 H           2.7364  -21.6087    8.3198 H      403  DMS403      0.0000
@<TRIPOS>BOND
     1     1     2    2
     2     1     3    1
     3     1     4    1
     4     3     5    1
     5     3     6    1
     6     3     7    1
     7     4     8    1
     8     4     9    1
     9     4    10    1

