@<TRIPOS>MOLECULE
DMS_1_A_402
 10 9 0 0 0
SMALL
NO_CHARGES

@<TRIPOS>ATOM
      1 S           6.0800   -1.0000   -6.2460 S.o    402  DMS402      0.0000
      2 O           6.8270   -0.4390   -7.4180 O.2    402  DMS402      0.0000
      3 C1          7.1820   -0.9490   -4.8600 C.3    402  DMS402      0.0000
      4 C2          6.0360   -2.7550   -6.4470 C.3    402  DMS402      0.0000
      5 H           6.7235   -1.4686   -3.9938 H      402  DMS402      0.0000
      6 H           7.3723    0.1079   -4.5825 H      402  DMS402      0.0000
      7 H           8.1466   -1.4341   -5.1140 H      402  DMS402      0.0000
      8 H           5.6058   -3.2285   -5.5407 H      402  DMS402      0.0000
      9 H           7.0573   -3.1511   -6.6214 H      402  DMS402      0.0000
     10 H           5.3982   -3.0080   -7.3185 H      402  DMS402      0.0000
@<TRIPOS>BOND
     1     1     2    2
     2     1     3    1
     3     1     4    1
     4     3     5    1
     5     3     6    1
     6     3     7    1
     7     4     8    1
     8     4     9    1
     9     4    10    1

