@<TRIPOS>MOLECULE
DMS_2_A_403
 10 9 0 0 0
SMALL
NO_CHARGES

@<TRIPOS>ATOM
      1 S          -2.3440  -19.0970   -8.1640 S.o    403  DMS403      0.0000
      2 O          -3.6270  -18.8220   -8.8620 O.2    403  DMS403      0.0000
      3 C1         -1.2180  -17.8940   -8.8110 C.3    403  DMS403      0.0000
      4 C2         -1.7290  -20.5160   -9.0360 C.3    403  DMS403      0.0000
      5 H          -0.1831  -18.1416   -8.4980 H      403  DMS403      0.0000
      6 H          -1.4816  -16.8927   -8.4132 H      403  DMS403      0.0000
      7 H          -1.2711  -17.8674   -9.9189 H      403  DMS403      0.0000
      8 H          -0.6831  -20.7206   -8.7287 H      403  DMS403      0.0000
      9 H          -1.7636  -20.3450  -10.1318 H      403  DMS403      0.0000
     10 H          -2.3531  -21.3989   -8.7881 H      403  DMS403      0.0000
@<TRIPOS>BOND
     1     1     2    2
     2     1     3    1
     3     1     4    1
     4     3     5    1
     5     3     6    1
     6     3     7    1
     7     4     8    1
     8     4     9    1
     9     4    10    1

