@<TRIPOS>MOLECULE
DMS_1_A_402
 10 9 0 0 0
SMALL
NO_CHARGES

@<TRIPOS>ATOM
      1 S           6.2720   -1.0100   -6.3990 S.o    402  DMS402      0.0000
      2 O           7.1950   -0.7700   -7.5030 O.2    402  DMS402      0.0000
      3 C1          7.3290   -1.0840   -4.9740 C.3    402  DMS402      0.0000
      4 C2          5.8680   -2.7120   -6.5030 C.3    402  DMS402      0.0000
      5 H           6.7487   -1.4279   -4.0934 H      402  DMS402      0.0000
      6 H           7.7324   -0.0725   -4.7626 H      402  DMS402      0.0000
      7 H           8.1746   -1.7800   -5.1523 H      402  DMS402      0.0000
      8 H           5.3100   -3.0235   -5.5965 H      402  DMS402      0.0000
      9 H           6.7866   -3.3271   -6.5974 H      402  DMS402      0.0000
     10 H           5.2270   -2.8855   -7.3916 H      402  DMS402      0.0000
@<TRIPOS>BOND
     1     1     2    2
     2     1     3    1
     3     1     4    1
     4     3     5    1
     5     3     6    1
     6     3     7    1
     7     4     8    1
     8     4     9    1
     9     4    10    1

