DMS_1_A_1004
  -ISIS-            3D

 10  9  0  0  0  0  0  0  0  0  1 V2000
    2.4310  -19.2400    8.3130 S   0  0  0  0  0
    3.6330  -18.7900    9.0190 O   0  0  0  0  0
    1.1290  -18.1940    8.8950 C   0  0  0  0  0
    1.9480  -20.7260    9.1610 C   0  0  0  0  0
    0.1510  -18.5766    8.5382 H   0  0  0  0  0
    1.2767  -17.1684    8.4992 H   0  0  0  0  0
    1.1272  -18.1556   10.0039 H   0  0  0  0  0
    0.9519  -21.0565    8.8020 H   0  0  0  0  0
    1.9063  -20.5521   10.2561 H   0  0  0  0  0
    2.6872  -21.5258    8.9503 H   0  0  0  0  0
  1  2  2  0  0  0
  1  3  1  0  0  0
  1  4  1  0  0  0
  3  5  1  0  0  0
  3  6  1  0  0  0
  3  7  1  0  0  0
  4  8  1  0  0  0
  4  9  1  0  0  0
  4 10  1  0  0  0
M  END
$$$$
