DMS_1_A_1002
  -ISIS-            3D

 10  9  0  0  0  0  0  0  0  0  1 V2000
    7.1430  -28.1770   21.6170 S   0  0  0  0  0
    7.7840  -27.2120   22.5020 O   0  0  0  0  0
    5.8980  -28.9290   22.6260 C   0  0  0  0  0
    6.1070  -27.2590   20.5200 C   0  0  0  0  0
    5.2598  -29.5896   22.0043 H   0  0  0  0  0
    5.2664  -28.1528   23.1051 H   0  0  0  0  0
    6.3824  -29.5397   23.4153 H   0  0  0  0  0
    5.4748  -27.9540   19.9305 H   0  0  0  0  0
    6.7387  -26.6711   19.8231 H   0  0  0  0  0
    5.4570  -26.5651   21.0915 H   0  0  0  0  0
  1  2  2  0  0  0
  1  3  1  0  0  0
  1  4  1  0  0  0
  3  5  1  0  0  0
  3  6  1  0  0  0
  3  7  1  0  0  0
  4  8  1  0  0  0
  4  9  1  0  0  0
  4 10  1  0  0  0
M  END
$$$$
