DMS_2_A_1002
  -ISIS-            3D

 10  9  0  0  0  0  0  0  0  0  1 V2000
   -7.1490  -28.1470  -21.4270 S   0  0  0  0  0
   -7.8680  -27.1620  -22.2180 O   0  0  0  0  0
   -5.8600  -28.7640  -22.4760 C   0  0  0  0  0
   -6.1780  -27.2460  -20.2600 C   0  0  0  0  0
   -5.1899  -29.4298  -21.8947 H   0  0  0  0  0
   -5.2698  -27.9242  -22.8971 H   0  0  0  0  0
   -6.3086  -29.3448  -23.3079 H   0  0  0  0  0
   -5.5045  -27.9398  -19.7166 H   0  0  0  0  0
   -6.8479  -26.7504  -19.5277 H   0  0  0  0  0
   -5.5716  -26.4735  -20.7762 H   0  0  0  0  0
  1  2  2  0  0  0
  1  3  1  0  0  0
  1  4  1  0  0  0
  3  5  1  0  0  0
  3  6  1  0  0  0
  3  7  1  0  0  0
  4  8  1  0  0  0
  4  9  1  0  0  0
  4 10  1  0  0  0
M  END
$$$$
