@<TRIPOS>MOLECULE
NC3_1_A_201
 29 29 0 0 0
SMALL
NO_CHARGES

@<TRIPOS>ATOM
      1 C1        -43.0460  -34.1920   -3.7540 C.3    201  NC3201      0.0000
      2 N2        -43.5820  -33.9210   -2.4570 N.am   201  NC3201      0.0000
      3 C3        -43.0150  -32.8920   -1.6540 C.2    201  NC3201      0.0000
      4 N4        -43.5630  -32.7320   -0.3740 N.am   201  NC3201      0.0000
      5 C5        -43.0290  -31.7470    0.5420 C.3    201  NC3201      0.0000
      6 C6        -43.1300  -32.2880    1.9440 C.2    201  NC3201      0.0000
      7 O7        -42.7870  -31.5850    2.8760 O.co2  201  NC3201     -0.5000
      8 O8        -42.1690  -32.1970   -2.0160 O.2    201  NC3201      0.0000
      9 O9        -43.5840  -33.4350    2.1560 O.co2  201  NC3201     -0.5000
     10 C10       -44.0820  -34.3710   -4.8330 C.3    201  NC3201      0.0000
     11 C11       -43.5000  -34.9180   -6.1100 C.3    201  NC3201      0.0000
     12 C12       -42.6870  -36.1470   -5.8450 C.3    201  NC3201      0.0000
     13 C13       -41.7260  -36.0520   -4.6780 C.3    201  NC3201      0.0000
     14 C14       -42.3360  -35.4950   -3.4500 C.3    201  NC3201      0.0000
     15 H         -42.3057  -33.4235   -4.0783 H      201  NC3201      0.0000
     16 H         -44.3717  -34.4720   -2.0935 H      201  NC3201      0.0000
     17 H         -44.3298  -33.3415   -0.0498 H      201  NC3201      0.0000
     18 H         -43.5997  -30.7931    0.4690 H      201  NC3201      0.0000
     19 H         -41.9620  -31.5088    0.3300 H      201  NC3201      0.0000
     20 H         -44.5862  -33.3969   -5.0328 H      201  NC3201      0.0000
     21 H         -44.8789  -35.0638   -4.4741 H      201  NC3201      0.0000
     22 H         -42.8494  -34.1410   -6.5758 H      201  NC3201      0.0000
     23 H         -44.3087  -35.1339   -6.8462 H      201  NC3201      0.0000
     24 H         -42.1279  -36.4325   -6.7668 H      201  NC3201      0.0000
     25 H         -43.3877  -36.9929   -5.6468 H      201  NC3201      0.0000
     26 H         -40.8674  -35.4061   -4.9792 H      201  NC3201      0.0000
     27 H         -41.2902  -37.0566   -4.4665 H      201  NC3201      0.0000
     28 H         -43.0520  -36.2432   -3.0339 H      201  NC3201      0.0000
     29 H         -41.5469  -35.3437   -2.6756 H      201  NC3201      0.0000
@<TRIPOS>BOND
     1     1     2    1
     2     1    10    1
     3     1    14    1
     4     1    15    1
     5     2     3    1
     6     2    16    1
     7     3     4    1
     8     3     8    2
     9     4     5    1
    10     4    17    1
    11     5     6    1
    12     5    18    1
    13     5    19    1
    14     6     7   ar
    15     6     9   ar
    16    10    11    1
    17    10    20    1
    18    10    21    1
    19    11    12    1
    20    11    22    1
    21    11    23    1
    22    12    13    1
    23    12    24    1
    24    12    25    1
    25    13    14    1
    26    13    26    1
    27    13    27    1
    28    14    28    1
    29    14    29    1

