DMS_1_A_402
  -ISIS-            3D

 10  9  0  0  0  0  0  0  0  0  1 V2000
    6.0810   -0.8780   -6.3060 S   0  0  0  0  0
    7.2150   -0.7080   -7.2770 O   0  0  0  0  0
    6.8910   -0.8020   -4.7210 C   0  0  0  0  0
    5.6820   -2.6040   -6.2320 C   0  0  0  0  0
    6.1710   -1.0579   -3.9170 H   0  0  0  0  0
    7.2633    0.2287   -4.5501 H   0  0  0  0  0
    7.7490   -1.5050   -4.6873 H   0  0  0  0  0
    4.9809   -2.7944   -5.3937 H   0  0  0  0  0
    6.6004   -3.2104   -6.0926 H   0  0  0  0  0
    5.1934   -2.9061   -7.1808 H   0  0  0  0  0
  1  2  2  0  0  0
  1  3  1  0  0  0
  1  4  1  0  0  0
  3  5  1  0  0  0
  3  6  1  0  0  0
  3  7  1  0  0  0
  4  8  1  0  0  0
  4  9  1  0  0  0
  4 10  1  0  0  0
M  END
$$$$
