DMS_2_A_405
  -ISIS-            3D

 10  9  0  0  0  0  0  0  0  0  1 V2000
  -13.4180    4.5500  -23.4440 S   0  0  0  0  0
  -14.2360    4.8370  -22.1930 O   0  0  0  0  0
  -12.2100    5.8310  -23.5320 C   0  0  0  0  0
  -12.3110    3.2350  -23.0160 C   0  0  0  0  0
  -11.4794    5.6076  -24.3361 H   0  0  0  0  0
  -11.6755    5.9292  -22.5648 H   0  0  0  0  0
  -12.7113    6.7929  -23.7640 H   0  0  0  0  0
  -11.5794    3.0756  -23.8343 H   0  0  0  0  0
  -12.8911    2.3010  -22.8695 H   0  0  0  0  0
  -11.7698    3.4730  -22.0772 H   0  0  0  0  0
  1  2  2  0  0  0
  1  3  1  0  0  0
  1  4  1  0  0  0
  3  5  1  0  0  0
  3  6  1  0  0  0
  3  7  1  0  0  0
  4  8  1  0  0  0
  4  9  1  0  0  0
  4 10  1  0  0  0
M  END
$$$$
