DMS_1_A_401
  -ISIS-            3D

 10  9  0  0  0  0  0  0  0  0  1 V2000
    7.4330  -28.1170   21.2500 S   0  0  0  0  0
    8.0460  -27.0360   22.0630 O   0  0  0  0  0
    6.2890  -28.9610   22.3200 C   0  0  0  0  0
    6.2390  -27.3500   20.1960 C   0  0  0  0  0
    5.6985  -29.6958   21.7353 H   0  0  0  0  0
    5.6032  -28.2351   22.8030 H   0  0  0  0  0
    6.8543  -29.5015   23.1066 H   0  0  0  0  0
    5.6510  -28.1259   19.6643 H   0  0  0  0  0
    6.7617  -26.7222   19.4456 H   0  0  0  0  0
    5.5543  -26.7084   20.7876 H   0  0  0  0  0
  1  2  2  0  0  0
  1  3  1  0  0  0
  1  4  1  0  0  0
  3  5  1  0  0  0
  3  6  1  0  0  0
  3  7  1  0  0  0
  4  8  1  0  0  0
  4  9  1  0  0  0
  4 10  1  0  0  0
M  END
$$$$
