@<TRIPOS>MOLECULE
DMS_2_A_401
 10 9 0 0 0
SMALL
NO_CHARGES

@<TRIPOS>ATOM
      1 S          -6.9740  -28.1130  -21.4320 S.o    401  DMS401      0.0000
      2 O          -7.7210  -27.1760  -22.3130 O.2    401  DMS401      0.0000
      3 C1         -5.7100  -28.8160  -22.4730 C.3    401  DMS401      0.0000
      4 C2         -5.9820  -27.1520  -20.3290 C.3    401  DMS401      0.0000
      5 H          -5.0338  -29.4499  -21.8636 H      401  DMS401      0.0000
      6 H          -5.1219  -28.0110  -22.9594 H      401  DMS401      0.0000
      7 H          -6.1842  -29.4437  -23.2549 H      401  DMS401      0.0000
      8 H          -5.3102  -27.8191  -19.7509 H      401  DMS401      0.0000
      9 H          -6.6403  -26.6053  -19.6232 H      401  DMS401      0.0000
     10 H          -5.3735  -26.4199  -20.8983 H      401  DMS401      0.0000
@<TRIPOS>BOND
     1     1     2    2
     2     1     3    1
     3     1     4    1
     4     3     5    1
     5     3     6    1
     6     3     7    1
     7     4     8    1
     8     4     9    1
     9     4    10    1

