SFG_1_A_301
  -ISIS-            3D

 50 52  0  0  0  0  0  0  0  0  1 V2000
   82.1820   19.0160   24.5040 N   0  3  0  0  0
   80.8760   18.7090   25.1250 C   0  0  0  0  0
   79.8270   19.5870   24.5030 C   0  0  0  0  0
   80.0570   20.0910   23.3810 O   0  0  0  0  0
   78.7600   19.7790   25.1230 O   0  0  0  0  0
   80.9530   18.9040   26.6380 C   0  0  0  0  0
   82.1460   18.1340   27.2070 C   0  0  0  0  0
   81.8470   17.5490   28.5870 C   0  0  0  0  0
   81.3480   18.6280   29.4610 N   0  0  0  0  0
   83.0640   16.9150   29.2710 C   0  0  0  0  0
   83.3630   15.5700   28.6040 C   0  0  0  0  0
   84.7200   15.1320   28.8380 O   0  0  0  0  0
   82.4770   14.3810   29.0060 C   0  0  0  0  0
   81.5690   14.0460   27.9500 O   0  0  0  0  0
   83.4140   13.1980   29.2640 C   0  0  0  0  0
   82.9970   12.0330   28.5380 O   0  0  0  0  0
   84.7930   13.6920   28.7970 C   0  0  0  0  0
   85.9310   13.0760   29.5210 N   0  0  0  0  0
   86.3070   13.2450   30.7920 C   0  0  0  0  0
   87.3960   12.4730   30.9980 N   0  0  0  0  0
   87.6910   11.8270   29.8480 C   0  0  0  0  0
   88.6760   10.9250   29.4710 C   0  0  0  0  0
   89.6150   10.5140   30.3560 N   0  0  0  0  0
   88.6950   10.4520   28.2060 N   0  0  0  0  0
   87.7770   10.8420   27.3120 C   0  0  0  0  0
   86.8180   11.7120   27.6540 N   0  0  0  0  0
   86.7590   12.2140   28.9160 C   0  0  0  0  0
   82.9155   18.3926   24.8229 H   0  0  0  0  0
   82.4678   19.9699   24.7085 H   0  0  0  0  0
   80.6103   17.6475   24.9018 H   0  0  0  0  0
   80.0061   18.5366   27.0958 H   0  0  0  0  0
   81.0402   19.9844   26.8959 H   0  0  0  0  0
   83.0396   18.7979   27.2522 H   0  0  0  0  0
   82.4020   17.2879   26.5327 H   0  0  0  0  0
   81.0363   16.7884   28.4919 H   0  0  0  0  0
   82.0770   19.3100   29.6515 H   0  0  0  0  0
   81.0317   18.2577   30.3531 H   0  0  0  0  0
   82.8866   16.7545   30.3572 H   0  0  0  0  0
   83.9442   17.5900   29.1846 H   0  0  0  0  0
   83.2733   15.6945   27.5036 H   0  0  0  0  0
   81.9027   14.6124   29.9273 H   0  0  0  0  0
   81.3858   13.1164   28.0003 H   0  0  0  0  0
   83.4375   12.9818   30.3534 H   0  0  0  0  0
   83.6502   11.3588   28.6739 H   0  0  0  0  0
   84.9073   13.4098   27.7267 H   0  0  0  0  0
   85.8889   13.8644   31.5943 H   0  0  0  0  0
   87.8122   10.4443   26.2856 H   0  0  0  0  0
   90.3009    9.8449   29.9849 H   0  0  0  0  0
   89.5723   10.8945   31.3101 H   0  0  0  0  0
   82.1390   18.9068   23.4947 H   0  0  0  0  0
  1  2  1  0  0  0
  1 28  1  0  0  0
  1 29  1  0  0  0
  2  3  1  0  0  0
  2  6  1  0  0  0
  2 30  1  0  0  0
  3  4  2  0  0  0
  3  5  2  0  0  0
  6  7  1  0  0  0
  6 31  1  0  0  0
  6 32  1  0  0  0
  7  8  1  0  0  0
  7 33  1  0  0  0
  7 34  1  0  0  0
  8  9  1  0  0  0
  8 10  1  0  0  0
  8 35  1  0  0  0
  9 36  1  0  0  0
  9 37  1  0  0  0
 10 11  1  0  0  0
 10 38  1  0  0  0
 10 39  1  0  0  0
 11 12  1  0  0  0
 11 13  1  0  0  0
 11 40  1  0  0  0
 12 17  1  0  0  0
 13 14  1  0  0  0
 13 15  1  0  0  0
 13 41  1  0  0  0
 14 42  1  0  0  0
 15 16  1  0  0  0
 15 17  1  0  0  0
 15 43  1  0  0  0
 16 44  1  0  0  0
 17 18  1  0  0  0
 17 45  1  0  0  0
 18 19  1  0  0  0
 18 27  1  0  0  0
 19 20  2  0  0  0
 19 46  1  0  0  0
 20 21  1  0  0  0
 21 22  2  0  0  0
 21 27  1  0  0  0
 22 23  1  0  0  0
 22 24  1  0  0  0
 23 48  1  0  0  0
 23 49  1  0  0  0
 24 25  2  0  0  0
 25 26  1  0  0  0
 25 47  1  0  0  0
 26 27  2  0  0  0
  1 50  1  0  0  0
M  END
$$$$
