@<TRIPOS>MOLECULE
SFG_1_A_301
 50 52 0 0 0
SMALL
NO_CHARGES

@<TRIPOS>ATOM
      1 N          82.1820   19.0160   24.5040 N.3    301  SFG301      1.0000
      2 CA         80.8760   18.7090   25.1250 C.3    301  SFG301      0.0000
      3 C          79.8270   19.5870   24.5030 C.2    301  SFG301      0.0000
      4 O          80.0570   20.0910   23.3810 O.co2  301  SFG301     -0.5000
      5 OXT        78.7600   19.7790   25.1230 O.co2  301  SFG301     -0.5000
      6 CB         80.9530   18.9040   26.6380 C.3    301  SFG301      0.0000
      7 CG         82.1460   18.1340   27.2070 C.3    301  SFG301      0.0000
      8 CD         81.8470   17.5490   28.5870 C.3    301  SFG301      0.0000
      9 NE         81.3480   18.6280   29.4610 N.3    301  SFG301      0.0000
     10 C5'        83.0640   16.9150   29.2710 C.3    301  SFG301      0.0000
     11 C4'        83.3630   15.5700   28.6040 C.3    301  SFG301      0.0000
     12 O4'        84.7200   15.1320   28.8380 O.3    301  SFG301      0.0000
     13 C3'        82.4770   14.3810   29.0060 C.3    301  SFG301      0.0000
     14 O3'        81.5690   14.0460   27.9500 O.3    301  SFG301      0.0000
     15 C2'        83.4140   13.1980   29.2640 C.3    301  SFG301      0.0000
     16 O2'        82.9970   12.0330   28.5380 O.3    301  SFG301      0.0000
     17 C1'        84.7930   13.6920   28.7970 C.3    301  SFG301      0.0000
     18 N9         85.9310   13.0760   29.5210 N.ar   301  SFG301      0.0000
     19 C8         86.3070   13.2450   30.7920 C.ar   301  SFG301      0.0000
     20 N7         87.3960   12.4730   30.9980 N.ar   301  SFG301      0.0000
     21 C5         87.6910   11.8270   29.8480 C.ar   301  SFG301      0.0000
     22 C6         88.6760   10.9250   29.4710 C.ar   301  SFG301      0.0000
     23 N6         89.6150   10.5140   30.3560 N.pl3  301  SFG301      0.0000
     24 N1         88.6950   10.4520   28.2060 N.ar   301  SFG301      0.0000
     25 C2         87.7770   10.8420   27.3120 C.ar   301  SFG301      0.0000
     26 N3         86.8180   11.7120   27.6540 N.ar   301  SFG301      0.0000
     27 C4         86.7590   12.2140   28.9160 C.ar   301  SFG301      0.0000
     28 H          82.9155   18.3926   24.8229 H      301  SFG301      0.0000
     29 H          82.4678   19.9699   24.7085 H      301  SFG301      0.0000
     30 H          80.6103   17.6475   24.9018 H      301  SFG301      0.0000
     31 H          80.0061   18.5366   27.0958 H      301  SFG301      0.0000
     32 H          81.0402   19.9844   26.8959 H      301  SFG301      0.0000
     33 H          83.0396   18.7979   27.2522 H      301  SFG301      0.0000
     34 H          82.4020   17.2879   26.5327 H      301  SFG301      0.0000
     35 H          81.0363   16.7884   28.4919 H      301  SFG301      0.0000
     36 H          82.0770   19.3100   29.6515 H      301  SFG301      0.0000
     37 H          81.0317   18.2577   30.3531 H      301  SFG301      0.0000
     38 H          82.8866   16.7545   30.3572 H      301  SFG301      0.0000
     39 H          83.9442   17.5900   29.1846 H      301  SFG301      0.0000
     40 H          83.2733   15.6945   27.5036 H      301  SFG301      0.0000
     41 H          81.9027   14.6124   29.9273 H      301  SFG301      0.0000
     42 H          81.3858   13.1164   28.0003 H      301  SFG301      0.0000
     43 H          83.4375   12.9818   30.3534 H      301  SFG301      0.0000
     44 H          83.6502   11.3588   28.6739 H      301  SFG301      0.0000
     45 H          84.9073   13.4098   27.7267 H      301  SFG301      0.0000
     46 H          85.8889   13.8644   31.5943 H      301  SFG301      0.0000
     47 H          87.8122   10.4443   26.2856 H      301  SFG301      0.0000
     48 H          90.3009    9.8449   29.9849 H      301  SFG301      0.0000
     49 H          89.5723   10.8945   31.3101 H      301  SFG301      0.0000
     50 H          82.1390   18.9068   23.4947 H      301  SFG301      0.0000
@<TRIPOS>BOND
     1     1     2    1
     2     1    28    1
     3     1    29    1
     4     2     3    1
     5     2     6    1
     6     2    30    1
     7     3     4   ar
     8     3     5   ar
     9     6     7    1
    10     6    31    1
    11     6    32    1
    12     7     8    1
    13     7    33    1
    14     7    34    1
    15     8     9    1
    16     8    10    1
    17     8    35    1
    18     9    36    1
    19     9    37    1
    20    10    11    1
    21    10    38    1
    22    10    39    1
    23    11    12    1
    24    11    13    1
    25    11    40    1
    26    12    17    1
    27    13    14    1
    28    13    15    1
    29    13    41    1
    30    14    42    1
    31    15    16    1
    32    15    17    1
    33    15    43    1
    34    16    44    1
    35    17    18    1
    36    17    45    1
    37    18    19   ar
    38    18    27   ar
    39    19    20   ar
    40    19    46    1
    41    20    21   ar
    42    21    22   ar
    43    21    27   ar
    44    22    23    1
    45    22    24   ar
    46    23    48    1
    47    23    49    1
    48    24    25   ar
    49    25    26   ar
    50    25    47    1
    51    26    27   ar
    52     1    50    1

