DMS_1_B_401
  -ISIS-            3D

 10  9  0  0  0  0  0  0  0  0  1 V2000
   -1.7070  -21.6620    3.4840 S   0  0  0  0  0
   -0.2470  -21.7590    3.4130 O   0  0  0  0  0
   -2.1050  -20.1040    2.7660 C   0  0  0  0  0
   -2.0690  -21.2800    5.1750 C   0  0  0  0  0
   -3.1811  -19.8829    2.9186 H   0  0  0  0  0
   -1.8988  -20.1365    1.6765 H   0  0  0  0  0
   -1.4959  -19.2979    3.2240 H   0  0  0  0  0
   -3.1461  -21.0380    5.2834 H   0  0  0  0  0
   -1.4614  -20.4165    5.5161 H   0  0  0  0  0
   -1.8346  -22.1595    5.8092 H   0  0  0  0  0
  1  2  2  0  0  0
  1  3  1  0  0  0
  1  4  1  0  0  0
  3  5  1  0  0  0
  3  6  1  0  0  0
  3  7  1  0  0  0
  4  8  1  0  0  0
  4  9  1  0  0  0
  4 10  1  0  0  0
M  END
$$$$
