@<TRIPOS>MOLECULE
DMS_1_A_404
 10 9 0 0 0
SMALL
NO_CHARGES

@<TRIPOS>ATOM
      1 S         -33.4610    3.7020   25.0860 S.o    404  DMS404      0.0000
      2 O         -33.3150    3.6140   23.6370 O.2    404  DMS404      0.0000
      3 C1        -35.0800    3.0680   25.4130 C.3    404  DMS404      0.0000
      4 C2        -33.7540    5.4150   25.4230 C.3    404  DMS404      0.0000
      5 H         -35.3416    3.2380   26.4774 H      404  DMS404      0.0000
      6 H         -35.0966    1.9775   25.2105 H      404  DMS404      0.0000
      7 H         -35.8301    3.5676   24.7658 H      404  DMS404      0.0000
      8 H         -34.0350    5.5452   26.4880 H      404  DMS404      0.0000
      9 H         -34.5688    5.8030   24.7775 H      404  DMS404      0.0000
     10 H         -32.8285    5.9931   25.2238 H      404  DMS404      0.0000
@<TRIPOS>BOND
     1     1     2    2
     2     1     3    1
     3     1     4    1
     4     3     5    1
     5     3     6    1
     6     3     7    1
     7     4     8    1
     8     4     9    1
     9     4    10    1

