@<TRIPOS>MOLECULE
DMS_1_B_402
 10 9 0 0 0
SMALL
NO_CHARGES

@<TRIPOS>ATOM
      1 S          12.7590  -10.7510    7.3560 S.o    402  DMS402      0.0000
      2 O          12.7560   -9.2890    7.2440 O.2    402  DMS402      0.0000
      3 C1         14.1870  -11.1820    8.3080 C.3    402  DMS402      0.0000
      4 C2         13.3210  -11.3370    5.7860 C.3    402  DMS402      0.0000
      5 H          14.3274  -12.2823    8.2996 H      402  DMS402      0.0000
      6 H          14.0436  -10.8484    9.3561 H      402  DMS402      0.0000
      7 H          15.0919  -10.6914    7.8942 H      402  DMS402      0.0000
      8 H          13.4857  -12.4330    5.8299 H      402  DMS402      0.0000
      9 H          14.2671  -10.8336    5.4991 H      402  DMS402      0.0000
     10 H          12.5511  -11.1229    5.0166 H      402  DMS402      0.0000
@<TRIPOS>BOND
     1     1     2    2
     2     1     3    1
     3     1     4    1
     4     3     5    1
     5     3     6    1
     6     3     7    1
     7     4     8    1
     8     4     9    1
     9     4    10    1

