@<TRIPOS>MOLECULE
DMS_1_B_401
 10 9 0 0 0
SMALL
NO_CHARGES

@<TRIPOS>ATOM
      1 S          -1.7070  -21.6620    3.4840 S.o    401  DMS401      0.0000
      2 O          -0.2470  -21.7590    3.4130 O.2    401  DMS401      0.0000
      3 C1         -2.1050  -20.1040    2.7660 C.3    401  DMS401      0.0000
      4 C2         -2.0690  -21.2800    5.1750 C.3    401  DMS401      0.0000
      5 H          -3.1811  -19.8829    2.9186 H      401  DMS401      0.0000
      6 H          -1.8988  -20.1365    1.6765 H      401  DMS401      0.0000
      7 H          -1.4959  -19.2979    3.2240 H      401  DMS401      0.0000
      8 H          -3.1461  -21.0380    5.2834 H      401  DMS401      0.0000
      9 H          -1.4614  -20.4165    5.5161 H      401  DMS401      0.0000
     10 H          -1.8346  -22.1595    5.8092 H      401  DMS401      0.0000
@<TRIPOS>BOND
     1     1     2    2
     2     1     3    1
     3     1     4    1
     4     3     5    1
     5     3     6    1
     6     3     7    1
     7     4     8    1
     8     4     9    1
     9     4    10    1

