DMS_1_A_404
  -ISIS-            3D

 10  9  0  0  0  0  0  0  0  0  1 V2000
  -33.4610    3.7020   25.0860 S   0  0  0  0  0
  -33.3150    3.6140   23.6370 O   0  0  0  0  0
  -35.0800    3.0680   25.4130 C   0  0  0  0  0
  -33.7540    5.4150   25.4230 C   0  0  0  0  0
  -35.3416    3.2380   26.4774 H   0  0  0  0  0
  -35.0966    1.9775   25.2105 H   0  0  0  0  0
  -35.8301    3.5676   24.7658 H   0  0  0  0  0
  -34.0350    5.5452   26.4880 H   0  0  0  0  0
  -34.5688    5.8030   24.7775 H   0  0  0  0  0
  -32.8285    5.9931   25.2238 H   0  0  0  0  0
  1  2  2  0  0  0
  1  3  1  0  0  0
  1  4  1  0  0  0
  3  5  1  0  0  0
  3  6  1  0  0  0
  3  7  1  0  0  0
  4  8  1  0  0  0
  4  9  1  0  0  0
  4 10  1  0  0  0
M  END
$$$$
