@<TRIPOS>MOLECULE
DMS_1_B_405
 10 9 0 0 0
SMALL
NO_CHARGES

@<TRIPOS>ATOM
      1 S          -7.0720  -17.3290    1.6600 S.o    405  DMS405      0.0000
      2 O          -6.2590  -17.1680    0.4340 O.2    405  DMS405      0.0000
      3 C1         -6.5600  -18.8530    2.3710 C.3    405  DMS405      0.0000
      4 C2         -8.6780  -17.8040    1.0680 C.3    405  DMS405      0.0000
      5 H          -7.2354  -19.1230    3.2083 H      405  DMS405      0.0000
      6 H          -5.5281  -18.7483    2.7642 H      405  DMS405      0.0000
      7 H          -6.5765  -19.6609    1.6110 H      405  DMS405      0.0000
      8 H          -9.3219  -18.0936    1.9234 H      405  DMS405      0.0000
      9 H          -8.5939  -18.6579    0.3647 H      405  DMS405      0.0000
     10 H          -9.1447  -16.9459    0.5424 H      405  DMS405      0.0000
@<TRIPOS>BOND
     1     1     2    2
     2     1     3    1
     3     1     4    1
     4     3     5    1
     5     3     6    1
     6     3     7    1
     7     4     8    1
     8     4     9    1
     9     4    10    1

