DMS_1_B_402
  -ISIS-            3D

 10  9  0  0  0  0  0  0  0  0  1 V2000
   12.7590  -10.7510    7.3560 S   0  0  0  0  0
   12.7560   -9.2890    7.2440 O   0  0  0  0  0
   14.1870  -11.1820    8.3080 C   0  0  0  0  0
   13.3210  -11.3370    5.7860 C   0  0  0  0  0
   14.3274  -12.2823    8.2996 H   0  0  0  0  0
   14.0436  -10.8484    9.3561 H   0  0  0  0  0
   15.0919  -10.6914    7.8942 H   0  0  0  0  0
   13.4857  -12.4330    5.8299 H   0  0  0  0  0
   14.2671  -10.8336    5.4991 H   0  0  0  0  0
   12.5511  -11.1229    5.0166 H   0  0  0  0  0
  1  2  2  0  0  0
  1  3  1  0  0  0
  1  4  1  0  0  0
  3  5  1  0  0  0
  3  6  1  0  0  0
  3  7  1  0  0  0
  4  8  1  0  0  0
  4  9  1  0  0  0
  4 10  1  0  0  0
M  END
$$$$
