@<TRIPOS>MOLECULE
DMS_1_A_402
 10 9 0 0 0
SMALL
NO_CHARGES

@<TRIPOS>ATOM
      1 S         -17.6250   -5.0730   -6.2530 S.o    402  DMS402      0.0000
      2 O         -17.9460   -6.2290   -7.1240 O.2    402  DMS402      0.0000
      3 C1        -16.0110   -4.6040   -6.3990 C.3    402  DMS402      0.0000
      4 C2        -18.6560   -3.8260   -6.8010 C.3    402  DMS402      0.0000
      5 H         -15.8193   -3.7069   -5.7759 H      402  DMS402      0.0000
      6 H         -15.7734   -4.3663   -7.4561 H      402  DMS402      0.0000
      7 H         -15.3473   -5.4241   -6.0569 H      402  DMS402      0.0000
      8 H         -18.4920   -2.9099   -6.1978 H      402  DMS402      0.0000
      9 H         -19.7156   -4.1366   -6.6953 H      402  DMS402      0.0000
     10 H         -18.4506   -3.5970   -7.8669 H      402  DMS402      0.0000
@<TRIPOS>BOND
     1     1     2    2
     2     1     3    1
     3     1     4    1
     4     3     5    1
     5     3     6    1
     6     3     7    1
     7     4     8    1
     8     4     9    1
     9     4    10    1

