@<TRIPOS>MOLECULE
DMS_2_A_402
 10 9 0 0 0
SMALL
NO_CHARGES

@<TRIPOS>ATOM
      1 S          30.5070   -5.0730  -45.6060 S.o    402  DMS402      0.0000
      2 O          30.8280   -6.2290  -44.7350 O.2    402  DMS402      0.0000
      3 C1         28.8930   -4.6040  -45.4600 C.3    402  DMS402      0.0000
      4 C2         31.5380   -3.8260  -45.0580 C.3    402  DMS402      0.0000
      5 H          28.7013   -3.7069  -46.0831 H      402  DMS402      0.0000
      6 H          28.6554   -4.3663  -44.4029 H      402  DMS402      0.0000
      7 H          28.2293   -5.4241  -45.8021 H      402  DMS402      0.0000
      8 H          31.3740   -2.9099  -45.6612 H      402  DMS402      0.0000
      9 H          32.5976   -4.1366  -45.1637 H      402  DMS402      0.0000
     10 H          31.3326   -3.5970  -43.9921 H      402  DMS402      0.0000
@<TRIPOS>BOND
     1     1     2    2
     2     1     3    1
     3     1     4    1
     4     3     5    1
     5     3     6    1
     6     3     7    1
     7     4     8    1
     8     4     9    1
     9     4    10    1

