DMS_1_A_402
  -ISIS-            3D

 10  9  0  0  0  0  0  0  0  0  1 V2000
  -17.6250   -5.0730   -6.2530 S   0  0  0  0  0
  -17.9460   -6.2290   -7.1240 O   0  0  0  0  0
  -16.0110   -4.6040   -6.3990 C   0  0  0  0  0
  -18.6560   -3.8260   -6.8010 C   0  0  0  0  0
  -15.8193   -3.7069   -5.7759 H   0  0  0  0  0
  -15.7734   -4.3663   -7.4561 H   0  0  0  0  0
  -15.3473   -5.4241   -6.0569 H   0  0  0  0  0
  -18.4920   -2.9099   -6.1978 H   0  0  0  0  0
  -19.7156   -4.1366   -6.6953 H   0  0  0  0  0
  -18.4506   -3.5970   -7.8669 H   0  0  0  0  0
  1  2  2  0  0  0
  1  3  1  0  0  0
  1  4  1  0  0  0
  3  5  1  0  0  0
  3  6  1  0  0  0
  3  7  1  0  0  0
  4  8  1  0  0  0
  4  9  1  0  0  0
  4 10  1  0  0  0
M  END
$$$$
