@<TRIPOS>MOLECULE
0EN_1_A_401
 63 65 0 0 0
SMALL
NO_CHARGES

@<TRIPOS>ATOM
      1 O1         21.8260  -28.7010    0.2550 O.2    401  0EN401      0.0000
      2 C1         22.6250  -28.7910   -0.6720 C.2    401  0EN401      0.0000
      3 C4         23.1410  -30.1820   -0.9540 C.ar   401  0EN401      0.0000
      4 C5         24.1440  -30.7260   -1.7450 C.ar   401  0EN401      0.0000
      5 C6         24.1090  -32.0950   -1.5550 C.ar   401  0EN401      0.0000
      6 C7         23.0990  -32.3750   -0.6530 C.ar   401  0EN401      0.0000
      7 O3         22.5020  -31.1870   -0.2740 O.3    401  0EN401      0.0000
      8 N1         23.0070  -27.7030   -1.3980 N.am   401  0EN401      0.0000
      9 C8         23.9600  -27.8610   -2.4390 C.ar   401  0EN401      0.0000
     10 C9         23.5670  -28.2490   -3.7250 C.ar   401  0EN401      0.0000
     11 C10        24.5200  -28.4050   -4.7340 C.ar   401  0EN401      0.0000
     12 C11        25.8800  -28.1720   -4.4850 C.ar   401  0EN401      0.0000
     13 C14        26.9060  -28.3430   -5.5980 C.3    401  0EN401      0.0000
     14 C15        27.8040  -27.1130   -5.6660 C.3    401  0EN401      0.0000
     15 C16        26.2250  -28.5120   -6.9550 C.3    401  0EN401      0.0000
     16 C17        27.7660  -29.5840   -5.3440 C.3    401  0EN401      0.0000
     17 C12        26.2700  -27.7800   -3.1940 C.ar   401  0EN401      0.0000
     18 C13        25.3220  -27.6300   -2.1780 C.ar   401  0EN401      0.0000
     19 C2         22.5400  -26.3240   -1.0950 C.3    401  0EN401      0.0000
     20 C3         23.1050  -25.3000   -2.0580 C.2    401  0EN401      0.0000
     21 N2         24.0530  -24.5110   -1.5220 N.am   401  0EN401      0.0000
     22 C23        24.8250  -23.4290   -2.1480 C.3    401  0EN401      0.0000
     23 C24        24.7860  -23.4420   -3.6720 C.3    401  0EN401      0.0000
     24 C25        26.2950  -23.5120   -1.7450 C.3    401  0EN401      0.0000
     25 C26        24.2860  -22.1040   -1.6220 C.3    401  0EN401      0.0000
     26 O2         22.7010  -25.2600   -3.2250 O.2    401  0EN401      0.0000
     27 C18        21.0680  -26.0740   -0.9730 C.ar   401  0EN401      0.0000
     28 C19        20.5990  -25.3210    0.1060 C.ar   401  0EN401      0.0000
     29 C20        19.2270  -25.0520    0.2290 C.ar   401  0EN401      0.0000
     30 C21        18.3800  -25.5530   -0.7530 C.ar   401  0EN401      0.0000
     31 N3         18.8480  -26.2460   -1.7870 N.ar   401  0EN401      0.0000
     32 C22        20.1560  -26.5290   -1.9260 C.ar   401  0EN401      0.0000
     33 H          24.8511  -30.2154   -2.4041 H      401  0EN401      0.0000
     34 H          24.7663  -32.8316   -2.0332 H      401  0EN401      0.0000
     35 H          22.6838  -33.2714   -0.1901 H      401  0EN401      0.0000
     36 H          22.5015  -28.4324   -3.9416 H      401  0EN401      0.0000
     37 H          24.1504  -28.7162   -5.7221 H      401  0EN401      0.0000
     38 H          28.5190  -27.1679   -6.5172 H      401  0EN401      0.0000
     39 H          28.4223  -26.9755   -4.7526 H      401  0EN401      0.0000
     40 H          27.2138  -26.1788   -5.8025 H      401  0EN401      0.0000
     41 H          26.9720  -28.5676   -7.7786 H      401  0EN401      0.0000
     42 H          25.5561  -27.6578   -7.2049 H      401  0EN401      0.0000
     43 H          25.6307  -29.4498   -7.0281 H      401  0EN401      0.0000
     44 H          28.5181  -29.7444   -6.1486 H      401  0EN401      0.0000
     45 H          27.1478  -30.5079   -5.2860 H      401  0EN401      0.0000
     46 H          28.3285  -29.5135   -4.3865 H      401  0EN401      0.0000
     47 H          27.3299  -27.5921   -2.9585 H      401  0EN401      0.0000
     48 H          25.6457  -27.3293   -1.1675 H      401  0EN401      0.0000
     49 H          22.9558  -26.0851   -0.0859 H      401  0EN401      0.0000
     50 H          24.2866  -24.6683   -0.5314 H      401  0EN401      0.0000
     51 H          25.4420  -22.6566   -4.1097 H      401  0EN401      0.0000
     52 H          23.7661  -23.2460   -4.0697 H      401  0EN401      0.0000
     53 H          25.1299  -24.4154   -4.0892 H      401  0EN401      0.0000
     54 H          26.9022  -22.6862   -2.1788 H      401  0EN401      0.0000
     55 H          26.7563  -24.4679   -2.0816 H      401  0EN401      0.0000
     56 H          26.4277  -23.4643   -0.6408 H      401  0EN401      0.0000
     57 H          24.8357  -21.2313   -2.0403 H      401  0EN401      0.0000
     58 H          24.3574  -22.0344   -0.5133 H      401  0EN401      0.0000
     59 H          23.2128  -21.9677   -1.8850 H      401  0EN401      0.0000
     60 H          21.2893  -24.9297    0.8725 H      401  0EN401      0.0000
     61 H          18.8353  -24.4658    1.0765 H      401  0EN401      0.0000
     62 H          17.2940  -25.3697   -0.6960 H      401  0EN401      0.0000
     63 H          20.4825  -27.1120   -2.8020 H      401  0EN401      0.0000
@<TRIPOS>BOND
     1     1     2    2
     2     2     3    1
     3     2     8    1
     4     3     4   ar
     5     3     7   ar
     6     4     5   ar
     7     4    33    1
     8     5     6   ar
     9     5    34    1
    10     6     7   ar
    11     6    35    1
    12     8     9    1
    13     8    19    1
    14     9    10   ar
    15     9    18   ar
    16    10    11   ar
    17    10    36    1
    18    11    12   ar
    19    11    37    1
    20    12    13    1
    21    12    17   ar
    22    13    14    1
    23    13    15    1
    24    13    16    1
    25    14    38    1
    26    14    39    1
    27    14    40    1
    28    15    41    1
    29    15    42    1
    30    15    43    1
    31    16    44    1
    32    16    45    1
    33    16    46    1
    34    17    18   ar
    35    17    47    1
    36    18    48    1
    37    19    20    1
    38    19    27    1
    39    19    49    1
    40    20    21    1
    41    20    26    2
    42    21    22    1
    43    21    50    1
    44    22    23    1
    45    22    24    1
    46    22    25    1
    47    23    51    1
    48    23    52    1
    49    23    53    1
    50    24    54    1
    51    24    55    1
    52    24    56    1
    53    25    57    1
    54    25    58    1
    55    25    59    1
    56    27    28   ar
    57    27    32   ar
    58    28    29   ar
    59    28    60    1
    60    29    30   ar
    61    29    61    1
    62    30    31   ar
    63    30    62    1
    64    31    32   ar
    65    32    63    1

