D3F_2_A_307
  -ISIS-            3D

 39 40  0  0  0  0  0  0  0  0  1 V2000
   22.9720  -45.6860   -4.9680 C   0  0  0  0  0
   23.3970  -45.4080   -3.6950 C   0  0  0  0  0
   24.0820  -44.2520   -3.4050 C   0  0  0  0  0
   24.3950  -43.3220   -4.3830 C   0  0  0  0  0
   23.9920  -43.6380   -5.6900 C   0  0  0  0  0
   23.3000  -44.8010   -5.9990 C   0  0  0  0  0
   22.9010  -45.1640   -7.4390 C   0  0  0  0  0
   25.2470  -41.8360   -4.0400 S   0  0  0  0  0
   26.7040  -42.2010   -3.8130 O   0  0  0  0  0
   24.7050  -41.4140   -2.6720 O   0  0  0  0  0
   25.1290  -40.4510   -5.1270 C   0  0  0  0  0
   25.2910  -40.5770   -6.5120 C   0  0  0  0  0
   25.2840  -39.4700   -7.3630 C   0  0  0  0  0
   25.1020  -38.1880   -6.8510 C   0  0  0  0  0
   24.9200  -38.0480   -5.4780 C   0  0  0  0  0
   24.9290  -39.1560   -4.6270 C   0  0  0  0  0
   24.7270  -38.9480   -3.3210 N   0  0  0  0  0
   25.8380  -38.9730   -2.4170 O   0  0  0  0  0
   23.4020  -38.6880   -2.8340 O   0  0  0  0  0
   25.0800  -36.9690   -7.7920 C   0  0  0  0  0
   24.7940  -35.8630   -7.0910 F   0  0  0  0  0
   26.2530  -36.8170   -8.4450 F   0  0  0  0  0
   24.1150  -37.1370   -8.7080 F   0  0  0  0  0
   25.4380  -41.7700   -7.0830 N   0  0  0  0  0
   26.6830  -42.4590   -6.9510 O   0  0  0  0  0
   24.3480  -42.3630   -7.7950 O   0  0  0  0  0
   24.8170  -43.8210   -2.1090 Cl  0  0  0  0  0
   22.0230  -47.0860   -5.2810 Cl  0  0  0  0  0
   23.1957  -46.1277   -2.8840 H   0  0  0  0  0
   23.6355  -42.7304   -6.0860 H   0  0  0  0  0
   22.3027  -44.3506   -7.9035 H   0  0  0  0  0
   22.2884  -46.0811   -7.5428 H   0  0  0  0  0
   23.8063  -45.3251   -8.0661 H   0  0  0  0  0
   25.4217  -39.6019   -8.4488 H   0  0  0  0  0
   24.7641  -37.0461   -5.0435 H   0  0  0  0  0
   25.2866  -39.5819   -1.2563 H   0  0  0  0  0
   22.7464  -39.8298   -3.3689 H   0  0  0  0  0
   26.2971  -43.7363   -6.4675 H   0  0  0  0  0
   24.7274  -41.9684   -9.1074 H   0  0  0  0  0
  1  2  2  0  0  0
  1  6  1  0  0  0
  1 28  1  0  0  0
  2  3  1  0  0  0
  2 29  1  0  0  0
  3  4  2  0  0  0
  3 27  1  0  0  0
  4  5  1  0  0  0
  4  8  1  0  0  0
  5  6  2  0  0  0
  5 30  1  0  0  0
  6  7  1  0  0  0
  7 31  1  0  0  0
  7 32  1  0  0  0
  7 33  1  0  0  0
  8  9  2  0  0  0
  8 10  2  0  0  0
  8 11  1  0  0  0
 11 12  2  0  0  0
 11 16  1  0  0  0
 12 13  1  0  0  0
 12 24  1  0  0  0
 13 14  2  0  0  0
 13 34  1  0  0  0
 14 15  1  0  0  0
 14 20  1  0  0  0
 15 16  2  0  0  0
 15 35  1  0  0  0
 16 17  1  0  0  0
 17 18  1  0  0  0
 17 19  1  0  0  0
 18 36  1  0  0  0
 19 37  1  0  0  0
 20 21  1  0  0  0
 20 22  1  0  0  0
 20 23  1  0  0  0
 24 25  1  0  0  0
 24 26  1  0  0  0
 25 38  1  0  0  0
 26 39  1  0  0  0
M  END
$$$$
