EDO_1_B_401
  -ISIS-            3D

 10  9  0  0  0  0  0  0  0  0  1 V2000
   -3.4370   -7.8340   29.3530 C   0  0  0  0  0
   -2.2820   -7.0400   29.6490 O   0  0  0  0  0
   -4.4770   -7.0020   28.6050 C   0  0  0  0  0
   -5.4490   -7.8500   27.9780 O   0  0  0  0  0
   -3.8625   -8.2619   30.2849 H   0  0  0  0  0
   -3.1137   -8.6878   28.7217 H   0  0  0  0  0
   -2.4550   -6.5427   30.4374 H   0  0  0  0  0
   -3.9774   -6.3917   27.8224 H   0  0  0  0  0
   -4.9839   -6.3000   29.3000 H   0  0  0  0  0
   -6.0333   -7.3057   27.4666 H   0  0  0  0  0
  1  2  1  0  0  0
  1  3  1  0  0  0
  1  5  1  0  0  0
  1  6  1  0  0  0
  2  7  1  0  0  0
  3  4  1  0  0  0
  3  8  1  0  0  0
  3  9  1  0  0  0
  4 10  1  0  0  0
M  END
$$$$
