@<TRIPOS>MOLECULE
EDO_1_B_401
 10 9 0 0 0
SMALL
NO_CHARGES

@<TRIPOS>ATOM
      1 C1         -3.4370   -7.8340   29.3530 C.3    401  EDO401      0.0000
      2 O1         -2.2820   -7.0400   29.6490 O.3    401  EDO401      0.0000
      3 C2         -4.4770   -7.0020   28.6050 C.3    401  EDO401      0.0000
      4 O2         -5.4490   -7.8500   27.9780 O.3    401  EDO401      0.0000
      5 H          -3.8625   -8.2619   30.2849 H      401  EDO401      0.0000
      6 H          -3.1137   -8.6878   28.7217 H      401  EDO401      0.0000
      7 H          -2.4550   -6.5427   30.4374 H      401  EDO401      0.0000
      8 H          -3.9774   -6.3917   27.8224 H      401  EDO401      0.0000
      9 H          -4.9839   -6.3000   29.3000 H      401  EDO401      0.0000
     10 H          -6.0333   -7.3057   27.4666 H      401  EDO401      0.0000
@<TRIPOS>BOND
     1     1     2    1
     2     1     3    1
     3     1     5    1
     4     1     6    1
     5     2     7    1
     6     3     4    1
     7     3     8    1
     8     3     9    1
     9     4    10    1

