@<TRIPOS>MOLECULE
EDO_1_B_408
 10 9 0 0 0
SMALL
NO_CHARGES

@<TRIPOS>ATOM
      1 C1        -59.4560   11.6520   19.2180 C.3    408  EDO408      0.0000
      2 O1        -60.1620   11.5500   17.9780 O.3    408  EDO408      0.0000
      3 C2        -59.8670   10.4970   20.1220 C.3    408  EDO408      0.0000
      4 O2        -59.5850    9.2630   19.4540 O.3    408  EDO408      0.0000
      5 H         -59.6952   12.6258   19.6927 H      408  EDO408      0.0000
      6 H         -58.3627   11.6360   19.0256 H      408  EDO408      0.0000
      7 H         -60.1230   10.6353   17.7217 H      408  EDO408      0.0000
      8 H         -60.9530   10.5462   20.3458 H      408  EDO408      0.0000
      9 H         -59.3294   10.5462   21.0927 H      408  EDO408      0.0000
     10 H         -58.8302    8.8618   19.8637 H      408  EDO408      0.0000
@<TRIPOS>BOND
     1     1     2    1
     2     1     3    1
     3     1     5    1
     4     1     6    1
     5     2     7    1
     6     3     4    1
     7     3     8    1
     8     3     9    1
     9     4    10    1

