EDO_3_A_405
  -ISIS-            3D

 10  9  0  0  0  0  0  0  0  0  1 V2000
 -105.3380   28.6120  -33.4620 C   0  0  0  0  0
 -104.4720   29.5800  -32.8570 O   0  0  0  0  0
 -105.5530   27.4650  -32.4840 C   0  0  0  0  0
 -105.4180   27.9670  -31.1490 O   0  0  0  0  0
 -104.8965   28.2555  -34.4147 H   0  0  0  0  0
 -106.3048   29.1008  -33.7056 H   0  0  0  0  0
 -104.7503   29.6939  -31.9565 H   0  0  0  0  0
 -104.7895   26.6757  -32.6521 H   0  0  0  0  0
 -106.5523   27.0028  -32.6244 H   0  0  0  0  0
 -105.4955   27.2372  -30.5494 H   0  0  0  0  0
  1  2  1  0  0  0
  1  3  1  0  0  0
  1  5  1  0  0  0
  1  6  1  0  0  0
  2  7  1  0  0  0
  3  4  1  0  0  0
  3  8  1  0  0  0
  3  9  1  0  0  0
  4 10  1  0  0  0
M  END
$$$$
