EDO_1_B_410
  -ISIS-            3D

 10  9  0  0  0  0  0  0  0  0  1 V2000
  -52.7170   44.5970   40.0530 C   0  0  0  0  0
  -51.3430   44.9430   40.2680 O   0  0  0  0  0
  -53.6040   45.7390   40.5350 C   0  0  0  0  0
  -54.9670   45.4790   40.1790 O   0  0  0  0  0
  -52.9560   43.6596   40.5979 H   0  0  0  0  0
  -52.8844   44.4118   38.9706 H   0  0  0  0  0
  -50.8026   44.2564   39.8997 H   0  0  0  0  0
  -53.2931   46.6912   40.0570 H   0  0  0  0  0
  -53.5140   45.8786   41.6329 H   0  0  0  0  0
  -55.3497   44.9235   40.8452 H   0  0  0  0  0
  1  2  1  0  0  0
  1  3  1  0  0  0
  1  5  1  0  0  0
  1  6  1  0  0  0
  2  7  1  0  0  0
  3  4  1  0  0  0
  3  8  1  0  0  0
  3  9  1  0  0  0
  4 10  1  0  0  0
M  END
$$$$
