EDO_1_A_404
  -ISIS-            3D

 10  9  0  0  0  0  0  0  0  0  1 V2000
  -79.7260    4.1100  -29.3030 C   0  0  0  0  0
  -78.6890    5.0990  -29.3120 O   0  0  0  0  0
  -80.1550    3.8470  -27.8660 C   0  0  0  0  0
  -79.0260    3.3710  -27.1260 O   0  0  0  0  0
  -79.3589    3.1799  -29.7854 H   0  0  0  0  0
  -80.5820    4.4794  -29.9044 H   0  0  0  0  0
  -78.0467    4.8141  -28.6719 H   0  0  0  0  0
  -80.9652    3.0880  -27.8398 H   0  0  0  0  0
  -80.5470    4.7751  -27.3988 H   0  0  0  0  0
  -79.3052    3.2022  -26.2360 H   0  0  0  0  0
  1  2  1  0  0  0
  1  3  1  0  0  0
  1  5  1  0  0  0
  1  6  1  0  0  0
  2  7  1  0  0  0
  3  4  1  0  0  0
  3  8  1  0  0  0
  3  9  1  0  0  0
  4 10  1  0  0  0
M  END
$$$$
