@<TRIPOS>MOLECULE
EDO_1_A_405
 10 9 0 0 0
SMALL
NO_CHARGES

@<TRIPOS>ATOM
      1 C1        -47.5800   25.1860  -33.4620 C.3    405  EDO405      0.0000
      2 O1        -48.8510   25.4520  -32.8570 O.3    405  EDO405      0.0000
      3 C2        -46.4790   25.5740  -32.4840 C.3    405  EDO405      0.0000
      4 O2        -46.9810   25.4400  -31.1490 O.3    405  EDO405      0.0000
      5 H         -47.4812   25.7452  -34.4157 H      405  EDO405      0.0000
      6 H         -47.5121   24.1026  -33.6980 H      405  EDO405      0.0000
      7 H         -49.5286   25.1555  -33.4497 H      405  EDO405      0.0000
      8 H         -46.1697   26.6282  -32.6453 H      405  EDO405      0.0000
      9 H         -45.5788   24.9395  -32.6133 H      405  EDO405      0.0000
     10 H         -47.8588   25.8014  -31.1325 H      405  EDO405      0.0000
@<TRIPOS>BOND
     1     1     2    1
     2     1     3    1
     3     1     5    1
     4     1     6    1
     5     2     7    1
     6     3     4    1
     7     3     8    1
     8     3     9    1
     9     4    10    1

