@<TRIPOS>MOLECULE
EDO_1_B_409
 10 9 0 0 0
SMALL
NO_CHARGES

@<TRIPOS>ATOM
      1 C1        -82.5720   34.2810   14.4680 C.3    409  EDO409      0.0000
      2 O1        -81.7270   35.2560   13.8410 O.3    409  EDO409      0.0000
      3 C2        -81.8920   33.7380   15.7200 C.3    409  EDO409      0.0000
      4 O2        -80.6930   33.0450   15.3540 O.3    409  EDO409      0.0000
      5 H         -82.7947   33.4630   13.7512 H      409  EDO409      0.0000
      6 H         -83.5376   34.7610   14.7293 H      409  EDO409      0.0000
      7 H         -80.8757   34.8455   13.7429 H      409  EDO409      0.0000
      8 H         -82.5739   33.0397   16.2500 H      409  EDO409      0.0000
      9 H         -81.6497   34.5647   16.4208 H      409  EDO409      0.0000
     10 H         -80.2908   32.7112   16.1448 H      409  EDO409      0.0000
@<TRIPOS>BOND
     1     1     2    1
     2     1     3    1
     3     1     5    1
     4     1     6    1
     5     2     7    1
     6     3     4    1
     7     3     8    1
     8     3     9    1
     9     4    10    1

