EDO_1_A_405
  -ISIS-            3D

 10  9  0  0  0  0  0  0  0  0  1 V2000
  -47.5800   25.1860  -33.4620 C   0  0  0  0  0
  -48.8510   25.4520  -32.8570 O   0  0  0  0  0
  -46.4790   25.5740  -32.4840 C   0  0  0  0  0
  -46.9810   25.4400  -31.1490 O   0  0  0  0  0
  -47.4812   25.7452  -34.4157 H   0  0  0  0  0
  -47.5121   24.1026  -33.6980 H   0  0  0  0  0
  -49.5286   25.1555  -33.4497 H   0  0  0  0  0
  -46.1697   26.6282  -32.6453 H   0  0  0  0  0
  -45.5788   24.9395  -32.6133 H   0  0  0  0  0
  -47.8588   25.8014  -31.1325 H   0  0  0  0  0
  1  2  1  0  0  0
  1  3  1  0  0  0
  1  5  1  0  0  0
  1  6  1  0  0  0
  2  7  1  0  0  0
  3  4  1  0  0  0
  3  8  1  0  0  0
  3  9  1  0  0  0
  4 10  1  0  0  0
M  END
$$$$
