@<TRIPOS>MOLECULE
EDO_3_A_408
 10 9 0 0 0
SMALL
NO_CHARGES

@<TRIPOS>ATOM
      1 C1       -109.5350   57.8000  -19.8030 C.3    408  EDO408      0.0000
      2 O1       -108.1240   57.9530  -19.6100 O.3    408  EDO408      0.0000
      3 C2       -109.9960   58.7740  -20.8770 C.3    408  EDO408      0.0000
      4 O2       -109.1940   58.5820  -22.0470 O.3    408  EDO408      0.0000
      5 H        -110.0558   58.0039  -18.8449 H      408  EDO408      0.0000
      6 H        -109.7664   56.7518  -20.0877 H      408  EDO408      0.0000
      7 H        -107.6958   57.5293  -20.3428 H      408  EDO408      0.0000
      8 H        -109.9154   59.8246  -20.5261 H      408  EDO408      0.0000
      9 H        -111.0600   58.5924  -21.1334 H      408  EDO408      0.0000
     10 H        -108.4166   59.1187  -21.9519 H      408  EDO408      0.0000
@<TRIPOS>BOND
     1     1     2    1
     2     1     3    1
     3     1     5    1
     4     1     6    1
     5     2     7    1
     6     3     4    1
     7     3     8    1
     8     3     9    1
     9     4    10    1

