@<TRIPOS>MOLECULE
EDO_1_B_405
 10 9 0 0 0
SMALL
NO_CHARGES

@<TRIPOS>ATOM
      1 C1        -49.8860   29.7790   22.0090 C.3    405  EDO405      0.0000
      2 O1        -49.3800   28.4690   21.7230 O.3    405  EDO405      0.0000
      3 C2        -51.1840   29.6700   22.8010 C.3    405  EDO405      0.0000
      4 O2        -52.1520   28.9230   22.0540 O.3    405  EDO405      0.0000
      5 H         -50.0598   30.3267   21.0585 H      405  EDO405      0.0000
      6 H         -49.1312   30.3503   22.5897 H      405  EDO405      0.0000
      7 H         -48.5732   28.5636   21.2347 H      405  EDO405      0.0000
      8 H         -51.5946   30.6779   23.0165 H      405  EDO405      0.0000
      9 H         -51.0068   29.1721   23.7774 H      405  EDO405      0.0000
     10 H         -51.7067   28.1385   21.7548 H      405  EDO405      0.0000
@<TRIPOS>BOND
     1     1     2    1
     2     1     3    1
     3     1     5    1
     4     1     6    1
     5     2     7    1
     6     3     4    1
     7     3     8    1
     8     3     9    1
     9     4    10    1

