@<TRIPOS>MOLECULE
EDO_3_A_411
 10 9 0 0 0
SMALL
NO_CHARGES

@<TRIPOS>ATOM
      1 C1       -110.4360   64.3070  -24.6690 C.3    411  EDO411      0.0000
      2 O1       -111.8400   64.0750  -24.8430 O.3    411  EDO411      0.0000
      3 C2       -110.2140   65.1470  -23.4180 C.3    411  EDO411      0.0000
      4 O2       -110.8150   66.4340  -23.5990 O.3    411  EDO411      0.0000
      5 H        -110.0412   64.8293  -25.5648 H      411  EDO411      0.0000
      6 H        -109.8977   63.3388  -24.5927 H      411  EDO411      0.0000
      7 H        -112.0732   63.2776  -24.3867 H      411  EDO411      0.0000
      8 H        -109.1293   65.2822  -23.2284 H      411  EDO411      0.0000
      9 H        -110.6467   64.6541  -22.5227 H      411  EDO411      0.0000
     10 H        -111.6829   66.2796  -23.9548 H      411  EDO411      0.0000
@<TRIPOS>BOND
     1     1     2    1
     2     1     3    1
     3     1     5    1
     4     1     6    1
     5     2     7    1
     6     3     4    1
     7     3     8    1
     8     3     9    1
     9     4    10    1

