EDO_3_A_410
  -ISIS-            3D

 10  9  0  0  0  0  0  0  0  0  1 V2000
  -83.8520   25.1970   -0.4130 C   0  0  0  0  0
  -84.7390   24.6620   -1.4050 O   0  0  0  0  0
  -83.6620   24.1950    0.7180 C   0  0  0  0  0
  -83.3480   22.9060    0.1770 O   0  0  0  0  0
  -84.2396   26.1633   -0.0268 H   0  0  0  0  0
  -82.8755   25.4105   -0.8959 H   0  0  0  0  0
  -85.6228   24.9367   -1.1977 H   0  0  0  0  0
  -84.5881   24.1157    1.3253 H   0  0  0  0  0
  -82.8475   24.5159    1.3992 H   0  0  0  0  0
  -83.8576   22.8142   -0.6204 H   0  0  0  0  0
  1  2  1  0  0  0
  1  3  1  0  0  0
  1  5  1  0  0  0
  1  6  1  0  0  0
  2  7  1  0  0  0
  3  4  1  0  0  0
  3  8  1  0  0  0
  3  9  1  0  0  0
  4 10  1  0  0  0
M  END
$$$$
