@<TRIPOS>MOLECULE
EDO_2_A_408
 10 9 0 0 0
SMALL
NO_CHARGES

@<TRIPOS>ATOM
      1 C1        -46.1160   65.9600  -19.8030 C.3    408  EDO408      0.0000
      2 O1        -46.6890   64.6620  -19.6100 O.3    408  EDO408      0.0000
      3 C2        -45.0420   65.8720  -20.8770 C.3    408  EDO408      0.0000
      4 O2        -45.6090   65.2730  -22.0470 O.3    408  EDO408      0.0000
      5 H         -45.6893   66.3190  -18.8442 H      408  EDO408      0.0000
      6 H         -46.9128   66.6741  -20.0998 H      408  EDO408      0.0000
      7 H         -46.8658   64.3188  -20.4785 H      408  EDO408      0.0000
      8 H         -44.1876   65.2579  -20.5211 H      408  EDO408      0.0000
      9 H         -44.6524   66.8828  -21.1204 H      408  EDO408      0.0000
     10 H         -44.9341   65.2251  -22.7119 H      408  EDO408      0.0000
@<TRIPOS>BOND
     1     1     2    1
     2     1     3    1
     3     1     5    1
     4     1     6    1
     5     2     7    1
     6     3     4    1
     7     3     8    1
     8     3     9    1
     9     4    10    1

