EDO_1_B_405
  -ISIS-            3D

 10  9  0  0  0  0  0  0  0  0  1 V2000
  -49.8860   29.7790   22.0090 C   0  0  0  0  0
  -49.3800   28.4690   21.7230 O   0  0  0  0  0
  -51.1840   29.6700   22.8010 C   0  0  0  0  0
  -52.1520   28.9230   22.0540 O   0  0  0  0  0
  -50.0598   30.3267   21.0585 H   0  0  0  0  0
  -49.1312   30.3503   22.5897 H   0  0  0  0  0
  -48.5732   28.5636   21.2347 H   0  0  0  0  0
  -51.5946   30.6779   23.0165 H   0  0  0  0  0
  -51.0068   29.1721   23.7774 H   0  0  0  0  0
  -51.7067   28.1385   21.7548 H   0  0  0  0  0
  1  2  1  0  0  0
  1  3  1  0  0  0
  1  5  1  0  0  0
  1  6  1  0  0  0
  2  7  1  0  0  0
  3  4  1  0  0  0
  3  8  1  0  0  0
  3  9  1  0  0  0
  4 10  1  0  0  0
M  END
$$$$
