@<TRIPOS>MOLECULE
EDO_2_A_402
 10 9 0 0 0
SMALL
NO_CHARGES

@<TRIPOS>ATOM
      1 C1        -46.2310   40.8020  -26.9720 C.3    402  EDO402      0.0000
      2 O1        -46.5470   39.5000  -27.4780 O.3    402  EDO402      0.0000
      3 C2        -47.4670   41.4320  -26.3370 C.3    402  EDO402      0.0000
      4 O2        -48.5510   41.4050  -27.2710 O.3    402  EDO402      0.0000
      5 H         -45.8565   41.4353  -27.8038 H      402  EDO402      0.0000
      6 H         -45.4101   40.7155  -26.2308 H      402  EDO402      0.0000
      7 H         -47.3732   39.5900  -27.9396 H      402  EDO402      0.0000
      8 H         -47.2547   42.4798  -26.0367 H      402  EDO402      0.0000
      9 H         -47.7539   40.8727  -25.4212 H      402  EDO402      0.0000
     10 H         -49.3075   41.7992  -26.8578 H      402  EDO402      0.0000
@<TRIPOS>BOND
     1     1     2    1
     2     1     3    1
     3     1     5    1
     4     1     6    1
     5     2     7    1
     6     3     4    1
     7     3     8    1
     8     3     9    1
     9     4    10    1

