EDO_3_A_406
  -ISIS-            3D

 10  9  0  0  0  0  0  0  0  0  1 V2000
  -97.1700   77.0480  -43.6430 C   0  0  0  0  0
  -96.5310   78.1910  -44.2200 O   0  0  0  0  0
  -98.3160   76.6000  -44.5410 C   0  0  0  0  0
  -97.7980   75.9770  -45.7210 O   0  0  0  0  0
  -97.5493   77.2984  -42.6292 H   0  0  0  0  0
  -96.4258   76.2344  -43.5201 H   0  0  0  0  0
  -96.7687   78.9609  -43.7197 H   0  0  0  0  0
  -98.9584   77.4633  -44.8152 H   0  0  0  0  0
  -98.9556   75.8700  -44.0009 H   0  0  0  0  0
  -98.5179   75.8196  -46.3178 H   0  0  0  0  0
  1  2  1  0  0  0
  1  3  1  0  0  0
  1  5  1  0  0  0
  1  6  1  0  0  0
  2  7  1  0  0  0
  3  4  1  0  0  0
  3  8  1  0  0  0
  3  9  1  0  0  0
  4 10  1  0  0  0
M  END
$$$$
