EDO_3_A_404
  -ISIS-            3D

 10  9  0  0  0  0  0  0  0  0  1 V2000
 -107.5180   66.9900  -29.3030 C   0  0  0  0  0
 -107.1800   65.5970  -29.3120 O   0  0  0  0  0
 -107.5310   67.4930  -27.8660 C   0  0  0  0  0
 -108.5080   66.7530  -27.1260 O   0  0  0  0  0
 -108.5079   67.1366  -29.7839 H   0  0  0  0  0
 -106.7716   67.5470  -29.9059 H   0  0  0  0  0
 -107.7481   65.1832  -28.6721 H   0  0  0  0  0
 -107.7824   68.5743  -27.8393 H   0  0  0  0  0
 -106.5311   67.3679  -27.3992 H   0  0  0  0  0
 -108.5142   67.0791  -26.2361 H   0  0  0  0  0
  1  2  1  0  0  0
  1  3  1  0  0  0
  1  5  1  0  0  0
  1  6  1  0  0  0
  2  7  1  0  0  0
  3  4  1  0  0  0
  3  8  1  0  0  0
  3  9  1  0  0  0
  4 10  1  0  0  0
M  END
$$$$
