EDO_2_A_412
  -ISIS-            3D

 10  9  0  0  0  0  0  0  0  0  1 V2000
  -30.2080   42.2100  -36.1550 C   0  0  0  0  0
  -30.8460   42.2130  -37.4370 O   0  0  0  0  0
  -30.0110   40.7820  -35.6590 C   0  0  0  0  0
  -29.2330   40.0410  -36.6060 O   0  0  0  0  0
  -30.8280   42.7808  -35.4315 H   0  0  0  0  0
  -29.2275   42.7269  -36.2289 H   0  0  0  0  0
  -30.9550   43.1140  -37.7123 H   0  0  0  0  0
  -30.9903   40.2796  -35.5128 H   0  0  0  0  0
  -29.4897   40.7764  -34.6797 H   0  0  0  0  0
  -29.6205   40.2103  -37.4568 H   0  0  0  0  0
  1  2  1  0  0  0
  1  3  1  0  0  0
  1  5  1  0  0  0
  1  6  1  0  0  0
  2  7  1  0  0  0
  3  4  1  0  0  0
  3  8  1  0  0  0
  3  9  1  0  0  0
  4 10  1  0  0  0
M  END
$$$$
