EDO_2_A_403
  -ISIS-            3D

 10  9  0  0  0  0  0  0  0  0  1 V2000
  -55.0750   63.7130  -34.3660 C   0  0  0  0  0
  -55.9210   62.6620  -33.8840 O   0  0  0  0  0
  -54.1990   63.2010  -35.5020 C   0  0  0  0  0
  -53.2000   62.3190  -34.9770 O   0  0  0  0  0
  -54.4515   64.1088  -33.5368 H   0  0  0  0  0
  -55.7095   64.5489  -34.7303 H   0  0  0  0  0
  -56.4571   63.0105  -33.1842 H   0  0  0  0  0
  -53.6897   64.0490  -36.0052 H   0  0  0  0  0
  -54.8029   62.6771  -36.2720 H   0  0  0  0  0
  -53.6633   61.6353  -34.5081 H   0  0  0  0  0
  1  2  1  0  0  0
  1  3  1  0  0  0
  1  5  1  0  0  0
  1  6  1  0  0  0
  2  7  1  0  0  0
  3  4  1  0  0  0
  3  8  1  0  0  0
  3  9  1  0  0  0
  4 10  1  0  0  0
M  END
$$$$
