@<TRIPOS>MOLECULE
EDO_2_B_405
 10 9 0 0 0
SMALL
NO_CHARGES

@<TRIPOS>ATOM
      1 C1        -76.3160   72.6260   22.0090 C.3    405  EDO405      0.0000
      2 O1        -75.4350   73.7190   21.7230 O.3    405  EDO405      0.0000
      3 C2        -75.5730   71.5560   22.8010 C.3    405  EDO405      0.0000
      4 O2        -74.4420   71.0910   22.0540 O.3    405  EDO405      0.0000
      5 H         -76.7080   72.2087   21.0577 H      405  EDO405      0.0000
      6 H         -77.1854   73.0045   22.5850 H      405  EDO405      0.0000
      7 H         -74.6384   73.3330   21.3769 H      405  EDO405      0.0000
      8 H         -76.2506   70.7032   23.0178 H      405  EDO405      0.0000
      9 H         -75.2320   71.9660   23.7753 H      405  EDO405      0.0000
     10 H         -74.0032   70.4246   22.5656 H      405  EDO405      0.0000
@<TRIPOS>BOND
     1     1     2    1
     2     1     3    1
     3     1     5    1
     4     1     6    1
     5     2     7    1
     6     3     4    1
     7     3     8    1
     8     3     9    1
     9     4    10    1

