@<TRIPOS>MOLECULE
EDO_3_A_405
 10 9 0 0 0
SMALL
NO_CHARGES

@<TRIPOS>ATOM
      1 C1       -105.3380   28.6120  -33.4620 C.3    405  EDO405      0.0000
      2 O1       -104.4720   29.5800  -32.8570 O.3    405  EDO405      0.0000
      3 C2       -105.5530   27.4650  -32.4840 C.3    405  EDO405      0.0000
      4 O2       -105.4180   27.9670  -31.1490 O.3    405  EDO405      0.0000
      5 H        -104.8965   28.2555  -34.4147 H      405  EDO405      0.0000
      6 H        -106.3048   29.1008  -33.7056 H      405  EDO405      0.0000
      7 H        -104.7503   29.6939  -31.9565 H      405  EDO405      0.0000
      8 H        -104.7895   26.6757  -32.6521 H      405  EDO405      0.0000
      9 H        -106.5523   27.0028  -32.6244 H      405  EDO405      0.0000
     10 H        -105.4955   27.2372  -30.5494 H      405  EDO405      0.0000
@<TRIPOS>BOND
     1     1     2    1
     2     1     3    1
     3     1     5    1
     4     1     6    1
     5     2     7    1
     6     3     4    1
     7     3     8    1
     8     3     9    1
     9     4    10    1

