@<TRIPOS>MOLECULE
EDO_1_B_410
 10 9 0 0 0
SMALL
NO_CHARGES

@<TRIPOS>ATOM
      1 C1        -52.7170   44.5970   40.0530 C.3    410  EDO410      0.0000
      2 O1        -51.3430   44.9430   40.2680 O.3    410  EDO410      0.0000
      3 C2        -53.6040   45.7390   40.5350 C.3    410  EDO410      0.0000
      4 O2        -54.9670   45.4790   40.1790 O.3    410  EDO410      0.0000
      5 H         -52.9560   43.6596   40.5979 H      410  EDO410      0.0000
      6 H         -52.8844   44.4118   38.9706 H      410  EDO410      0.0000
      7 H         -50.8026   44.2564   39.8997 H      410  EDO410      0.0000
      8 H         -53.2931   46.6912   40.0570 H      410  EDO410      0.0000
      9 H         -53.5140   45.8786   41.6329 H      410  EDO410      0.0000
     10 H         -55.3497   44.9235   40.8452 H      410  EDO410      0.0000
@<TRIPOS>BOND
     1     1     2    1
     2     1     3    1
     3     1     5    1
     4     1     6    1
     5     2     7    1
     6     3     4    1
     7     3     8    1
     8     3     9    1
     9     4    10    1

