EDO_1_B_404
  -ISIS-            3D

 10  9  0  0  0  0  0  0  0  0  1 V2000
  -48.3120   31.9920   26.2180 C   0  0  0  0  0
  -47.9350   33.3620   26.4010 O   0  0  0  0  0
  -49.6720   31.9070   25.5310 C   0  0  0  0  0
  -50.6660   32.5300   26.3540 O   0  0  0  0  0
  -48.3366   31.4795   27.2026 H   0  0  0  0  0
  -47.5372   31.4866   25.6054 H   0  0  0  0  0
  -48.6817   33.7904   26.8035 H   0  0  0  0  0
  -49.9464   30.8447   25.3587 H   0  0  0  0  0
  -49.6376   32.4085   24.5407 H   0  0  0  0  0
  -51.5019   32.4599   25.9127 H   0  0  0  0  0
  1  2  1  0  0  0
  1  3  1  0  0  0
  1  5  1  0  0  0
  1  6  1  0  0  0
  2  7  1  0  0  0
  3  4  1  0  0  0
  3  8  1  0  0  0
  3  9  1  0  0  0
  4 10  1  0  0  0
M  END
$$$$
