@<TRIPOS>MOLECULE
EDO_2_A_406
 10 9 0 0 0
SMALL
NO_CHARGES

@<TRIPOS>ATOM
      1 C1        -35.6300   45.6280  -43.6430 C.3    406  EDO406      0.0000
      2 O1        -34.9590   44.5030  -44.2200 O.3    406  EDO406      0.0000
      3 C2        -35.4440   46.8440  -44.5410 C.3    406  EDO406      0.0000
      4 O2        -36.2430   46.7070  -45.7210 O.3    406  EDO406      0.0000
      5 H         -35.1929   45.8214  -42.6414 H      406  EDO406      0.0000
      6 H         -36.7051   45.3963  -43.4931 H      406  EDO406      0.0000
      7 H         -35.3223   44.3884  -45.0899 H      406  EDO406      0.0000
      8 H         -34.3759   46.9711  -44.8168 H      406  EDO406      0.0000
      9 H         -35.7567   47.7614  -43.9981 H      406  EDO406      0.0000
     10 H         -36.1119   47.4766  -46.2588 H      406  EDO406      0.0000
@<TRIPOS>BOND
     1     1     2    1
     2     1     3    1
     3     1     5    1
     4     1     6    1
     5     2     7    1
     6     3     4    1
     7     3     8    1
     8     3     9    1
     9     4    10    1

