@<TRIPOS>MOLECULE
EDO_3_B_404
 10 9 0 0 0
SMALL
NO_CHARGES

@<TRIPOS>ATOM
      1 C1        -99.0780   25.8430   26.2180 C.3    404  EDO404      0.0000
      2 O1        -98.0800   24.8320   26.4010 O.3    404  EDO404      0.0000
      3 C2        -98.4720   27.0640   25.5310 C.3    404  EDO404      0.0000
      4 O2        -97.4350   27.6130   26.3540 O.3    404  EDO404      0.0000
      5 H         -99.4887   26.1247   27.2099 H      404  EDO404      0.0000
      6 H         -99.9231   25.4379   25.6220 H      404  EDO404      0.0000
      7 H         -98.0491   24.2937   25.6211 H      404  EDO404      0.0000
      8 H         -99.2468   27.8405   25.3644 H      404  EDO404      0.0000
      9 H         -98.0555   26.7950   24.5379 H      404  EDO404      0.0000
     10 H         -96.9206   26.8778   26.6672 H      404  EDO404      0.0000
@<TRIPOS>BOND
     1     1     2    1
     2     1     3    1
     3     1     5    1
     4     1     6    1
     5     2     7    1
     6     3     4    1
     7     3     8    1
     8     3     9    1
     9     4    10    1

