@<TRIPOS>MOLECULE
EDO_2_A_405
 10 9 0 0 0
SMALL
NO_CHARGES

@<TRIPOS>ATOM
      1 C1        -73.4920   76.9190  -33.4620 C.3    405  EDO405      0.0000
      2 O1        -73.0870   75.6860  -32.8570 O.3    405  EDO405      0.0000
      3 C2        -74.3780   77.6790  -32.4840 C.3    405  EDO405      0.0000
      4 O2        -74.0110   77.3110  -31.1490 O.3    405  EDO405      0.0000
      5 H         -74.0216   76.7147  -34.4146 H      405  EDO405      0.0000
      6 H         -72.5854   77.5119  -33.7059 H      405  EDO405      0.0000
      7 H         -72.8483   75.8703  -31.9567 H      405  EDO405      0.0000
      8 H         -75.4433   77.4128  -32.6523 H      405  EDO405      0.0000
      9 H         -74.2782   78.7754  -32.6244 H      405  EDO405      0.0000
     10 H         -74.6035   77.7441  -30.5494 H      405  EDO405      0.0000
@<TRIPOS>BOND
     1     1     2    1
     2     1     3    1
     3     1     5    1
     4     1     6    1
     5     2     7    1
     6     3     4    1
     7     3     8    1
     8     3     9    1
     9     4    10    1

