EDO_3_B_406
  -ISIS-            3D

 10  9  0  0  0  0  0  0  0  0  1 V2000
 -109.9100   66.7940   24.4690 C   0  0  0  0  0
 -108.7670   66.6370   25.3180 O   0  0  0  0  0
 -109.5200   67.6020   23.2380 C   0  0  0  0  0
 -108.4200   66.9600   22.5800 O   0  0  0  0  0
 -110.7220   67.3084   25.0251 H   0  0  0  0  0
 -110.2906   65.7944   24.1694 H   0  0  0  0  0
 -109.0302   66.1365   26.0786 H   0  0  0  0  0
 -109.2284   68.6351   23.5215 H   0  0  0  0  0
 -110.3720   67.6803   22.5319 H   0  0  0  0  0
 -107.7895   66.7528   23.2607 H   0  0  0  0  0
  1  2  1  0  0  0
  1  3  1  0  0  0
  1  5  1  0  0  0
  1  6  1  0  0  0
  2  7  1  0  0  0
  3  4  1  0  0  0
  3  8  1  0  0  0
  3  9  1  0  0  0
  4 10  1  0  0  0
M  END
$$$$
