@<TRIPOS>MOLECULE
EDO_2_A_403
 10 9 0 0 0
SMALL
NO_CHARGES

@<TRIPOS>ATOM
      1 C1        -55.0750   63.7130  -34.3660 C.3    403  EDO403      0.0000
      2 O1        -55.9210   62.6620  -33.8840 O.3    403  EDO403      0.0000
      3 C2        -54.1990   63.2010  -35.5020 C.3    403  EDO403      0.0000
      4 O2        -53.2000   62.3190  -34.9770 O.3    403  EDO403      0.0000
      5 H         -54.4515   64.1088  -33.5368 H      403  EDO403      0.0000
      6 H         -55.7095   64.5489  -34.7303 H      403  EDO403      0.0000
      7 H         -56.4571   63.0105  -33.1842 H      403  EDO403      0.0000
      8 H         -53.6897   64.0490  -36.0052 H      403  EDO403      0.0000
      9 H         -54.8029   62.6771  -36.2720 H      403  EDO403      0.0000
     10 H         -53.6633   61.6353  -34.5081 H      403  EDO403      0.0000
@<TRIPOS>BOND
     1     1     2    1
     2     1     3    1
     3     1     5    1
     4     1     6    1
     5     2     7    1
     6     3     4    1
     7     3     8    1
     8     3     9    1
     9     4    10    1

