@<TRIPOS>MOLECULE
EDO_1_A_402
 10 9 0 0 0
SMALL
NO_CHARGES

@<TRIPOS>ATOM
      1 C1        -92.4890   19.6360  -26.9720 C.3    402  EDO402      0.0000
      2 O1        -93.4580   20.5610  -27.4780 O.3    402  EDO402      0.0000
      3 C2        -91.3250   20.3920  -26.3370 C.3    402  EDO402      0.0000
      4 O2        -90.8070   21.3440  -27.2710 O.3    402  EDO402      0.0000
      5 H         -92.1205   18.9975  -27.8029 H      402  EDO402      0.0000
      6 H         -92.9645   18.9667  -26.2242 H      402  EDO402      0.0000
      7 H         -94.1673   20.0649  -27.8643 H      402  EDO402      0.0000
      8 H         -90.5163   19.6934  -26.0395 H      402  EDO402      0.0000
      9 H         -91.6580   20.9222  -25.4200 H      402  EDO402      0.0000
     10 H         -91.5614   21.7845  -27.6460 H      402  EDO402      0.0000
@<TRIPOS>BOND
     1     1     2    1
     2     1     3    1
     3     1     5    1
     4     1     6    1
     5     2     7    1
     6     3     4    1
     7     3     8    1
     8     3     9    1
     9     4    10    1

