@<TRIPOS>MOLECULE
EDO_3_B_407
 10 9 0 0 0
SMALL
NO_CHARGES

@<TRIPOS>ATOM
      1 C1       -103.1150   45.2690   13.1290 C.3    407  EDO407      0.0000
      2 O1       -104.4770   45.1850   13.5610 O.3    407  EDO407      0.0000
      3 C2       -102.9090   46.5680   12.3620 C.3    407  EDO407      0.0000
      4 O2       -103.8030   46.6140   11.2440 O.3    407  EDO407      0.0000
      5 H        -102.8904   44.3975   12.4795 H      407  EDO407      0.0000
      6 H        -102.4305   45.2108   14.0016 H      407  EDO407      0.0000
      7 H        -104.5469   45.5825   14.4190 H      407  EDO407      0.0000
      8 H        -101.8654   46.6417   11.9927 H      407  EDO407      0.0000
      9 H        -103.0899   47.4466   13.0160 H      407  EDO407      0.0000
     10 H        -104.6426   46.2967   11.5572 H      407  EDO407      0.0000
@<TRIPOS>BOND
     1     1     2    1
     2     1     3    1
     3     1     5    1
     4     1     6    1
     5     2     7    1
     6     3     4    1
     7     3     8    1
     8     3     9    1
     9     4    10    1

