@<TRIPOS>MOLECULE
EDO_3_B_410
 10 9 0 0 0
SMALL
NO_CHARGES

@<TRIPOS>ATOM
      1 C1        -85.9590   23.3560   40.0530 C.3    410  EDO410      0.0000
      2 O1        -86.3470   21.9930   40.2680 O.3    410  EDO410      0.0000
      3 C2        -84.5270   23.5530   40.5350 C.3    410  EDO410      0.0000
      4 O2        -84.0710   24.8630   40.1790 O.3    410  EDO410      0.0000
      5 H         -86.6504   24.0210   40.6105 H      410  EDO410      0.0000
      6 H         -86.0540   23.6091   38.9758 H      410  EDO410      0.0000
      7 H         -86.0626   21.4792   39.5235 H      410  EDO410      0.0000
      8 H         -83.8564   22.7987   40.0714 H      410  EDO410      0.0000
      9 H         -84.4695   23.4215   41.6363 H      410  EDO410      0.0000
     10 H         -83.2094   24.9898   40.5538 H      410  EDO410      0.0000
@<TRIPOS>BOND
     1     1     2    1
     2     1     3    1
     3     1     5    1
     4     1     6    1
     5     2     7    1
     6     3     4    1
     7     3     8    1
     8     3     9    1
     9     4    10    1

