EDO_2_A_402
  -ISIS-            3D

 10  9  0  0  0  0  0  0  0  0  1 V2000
  -46.2310   40.8020  -26.9720 C   0  0  0  0  0
  -46.5470   39.5000  -27.4780 O   0  0  0  0  0
  -47.4670   41.4320  -26.3370 C   0  0  0  0  0
  -48.5510   41.4050  -27.2710 O   0  0  0  0  0
  -45.8565   41.4353  -27.8038 H   0  0  0  0  0
  -45.4101   40.7155  -26.2308 H   0  0  0  0  0
  -47.3732   39.5900  -27.9396 H   0  0  0  0  0
  -47.2547   42.4798  -26.0367 H   0  0  0  0  0
  -47.7539   40.8727  -25.4212 H   0  0  0  0  0
  -49.3075   41.7992  -26.8578 H   0  0  0  0  0
  1  2  1  0  0  0
  1  3  1  0  0  0
  1  5  1  0  0  0
  1  6  1  0  0  0
  2  7  1  0  0  0
  3  4  1  0  0  0
  3  8  1  0  0  0
  3  9  1  0  0  0
  4 10  1  0  0  0
M  END
$$$$
