@<TRIPOS>MOLECULE
EDO_2_A_412
 10 9 0 0 0
SMALL
NO_CHARGES

@<TRIPOS>ATOM
      1 C1        -30.2080   42.2100  -36.1550 C.3    412  EDO412      0.0000
      2 O1        -30.8460   42.2130  -37.4370 O.3    412  EDO412      0.0000
      3 C2        -30.0110   40.7820  -35.6590 C.3    412  EDO412      0.0000
      4 O2        -29.2330   40.0410  -36.6060 O.3    412  EDO412      0.0000
      5 H         -30.8280   42.7808  -35.4315 H      412  EDO412      0.0000
      6 H         -29.2275   42.7269  -36.2289 H      412  EDO412      0.0000
      7 H         -30.9550   43.1140  -37.7123 H      412  EDO412      0.0000
      8 H         -30.9903   40.2796  -35.5128 H      412  EDO412      0.0000
      9 H         -29.4897   40.7764  -34.6797 H      412  EDO412      0.0000
     10 H         -29.6205   40.2103  -37.4568 H      412  EDO412      0.0000
@<TRIPOS>BOND
     1     1     2    1
     2     1     3    1
     3     1     5    1
     4     1     6    1
     5     2     7    1
     6     3     4    1
     7     3     8    1
     8     3     9    1
     9     4    10    1

