EDO_2_A_411
  -ISIS-            3D

 10  9  0  0  0  0  0  0  0  0  1 V2000
  -40.0310   63.4870  -24.6690 C   0  0  0  0  0
  -39.5290   64.8180  -24.8430 O   0  0  0  0  0
  -39.4140   62.8750  -23.4180 C   0  0  0  0  0
  -37.9990   62.7520  -23.5990 O   0  0  0  0  0
  -39.7760   62.8832  -25.5646 H   0  0  0  0  0
  -41.1390   63.5032  -24.5924 H   0  0  0  0  0
  -40.1529   65.4276  -24.4716 H   0  0  0  0  0
  -39.8392   61.8675  -23.2297 H   0  0  0  0  0
  -39.6256   63.4953  -22.5221 H   0  0  0  0  0
  -37.6987   63.5830  -23.9488 H   0  0  0  0  0
  1  2  1  0  0  0
  1  3  1  0  0  0
  1  5  1  0  0  0
  1  6  1  0  0  0
  2  7  1  0  0  0
  3  4  1  0  0  0
  3  8  1  0  0  0
  3  9  1  0  0  0
  4 10  1  0  0  0
M  END
$$$$
