@<TRIPOS>MOLECULE
EDO_2_B_403
 10 9 0 0 0
SMALL
NO_CHARGES

@<TRIPOS>ATOM
      1 C1        -51.6880   70.8400   31.4390 C.3    403  EDO403      0.0000
      2 O1        -51.3260   70.7020   30.0610 O.3    403  EDO403      0.0000
      3 C2        -52.7670   71.9060   31.5740 C.3    403  EDO403      0.0000
      4 O2        -52.4300   73.0430   30.7710 O.3    403  EDO403      0.0000
      5 H         -50.7867   71.1260   32.0212 H      403  EDO403      0.0000
      6 H         -52.0387   69.8635   31.8310 H      403  EDO403      0.0000
      7 H         -51.2742   71.5829   29.7070 H      403  EDO403      0.0000
      8 H         -52.8822   72.2107   32.6354 H      403  EDO403      0.0000
      9 H         -53.7442   71.4994   31.2362 H      403  EDO403      0.0000
     10 H         -53.1222   73.6842   30.8607 H      403  EDO403      0.0000
@<TRIPOS>BOND
     1     1     2    1
     2     1     3    1
     3     1     5    1
     4     1     6    1
     5     2     7    1
     6     3     4    1
     7     3     8    1
     8     3     9    1
     9     4    10    1

