@<TRIPOS>MOLECULE
EDO_1_A_403
 10 9 0 0 0
SMALL
NO_CHARGES

@<TRIPOS>ATOM
      1 C1        -68.2250   15.8400  -34.3660 C.3    403  EDO403      0.0000
      2 O1        -68.7130   17.0980  -33.8840 O.3    403  EDO403      0.0000
      3 C2        -69.1070   15.3370  -35.5020 C.3    403  EDO403      0.0000
      4 O2        -70.3700   14.9130  -34.9770 O.3    403  EDO403      0.0000
      5 H         -68.1981   15.0987  -33.5394 H      403  EDO403      0.0000
      6 H         -67.1826   15.9730  -34.7255 H      403  EDO403      0.0000
      7 H         -68.2765   17.2921  -33.0650 H      403  EDO403      0.0000
      8 H         -68.6209   14.4780  -36.0110 H      403  EDO403      0.0000
      9 H         -69.2554   16.1340  -36.2610 H      403  EDO403      0.0000
     10 H         -70.9673   14.7895  -35.7029 H      403  EDO403      0.0000
@<TRIPOS>BOND
     1     1     2    1
     2     1     3    1
     3     1     5    1
     4     1     6    1
     5     2     7    1
     6     3     4    1
     7     3     8    1
     8     3     9    1
     9     4    10    1

