@<TRIPOS>MOLECULE
EDO_2_B_409
 10 9 0 0 0
SMALL
NO_CHARGES

@<TRIPOS>ATOM
      1 C1        -63.8720   42.0680   14.4680 C.3    409  EDO409      0.0000
      2 O1        -65.1390   42.3120   13.8410 O.3    409  EDO409      0.0000
      3 C2        -63.7420   42.9280   15.7200 C.3    409  EDO409      0.0000
      4 O2        -63.7410   44.3130   15.3540 O.3    409  EDO409      0.0000
      5 H         -63.0507   42.2922   13.7550 H      409  EDO409      0.0000
      6 H         -63.7959   40.9931   14.7369 H      409  EDO409      0.0000
      7 H         -65.1989   41.7621   13.0712 H      409  EDO409      0.0000
      8 H         -62.7954   42.6982   16.2512 H      409  EDO409      0.0000
      9 H         -64.5739   42.7281   16.4274 H      409  EDO409      0.0000
     10 H         -64.5035   44.4427   14.8019 H      409  EDO409      0.0000
@<TRIPOS>BOND
     1     1     2    1
     2     1     3    1
     3     1     5    1
     4     1     6    1
     5     2     7    1
     6     3     4    1
     7     3     8    1
     8     3     9    1
     9     4    10    1

