@<TRIPOS>MOLECULE
EDO_3_A_404
 10 9 0 0 0
SMALL
NO_CHARGES

@<TRIPOS>ATOM
      1 C1       -107.5180   66.9900  -29.3030 C.3    404  EDO404      0.0000
      2 O1       -107.1800   65.5970  -29.3120 O.3    404  EDO404      0.0000
      3 C2       -107.5310   67.4930  -27.8660 C.3    404  EDO404      0.0000
      4 O2       -108.5080   66.7530  -27.1260 O.3    404  EDO404      0.0000
      5 H        -108.5079   67.1366  -29.7839 H      404  EDO404      0.0000
      6 H        -106.7716   67.5470  -29.9059 H      404  EDO404      0.0000
      7 H        -107.7481   65.1832  -28.6721 H      404  EDO404      0.0000
      8 H        -107.7824   68.5743  -27.8393 H      404  EDO404      0.0000
      9 H        -106.5311   67.3679  -27.3992 H      404  EDO404      0.0000
     10 H        -108.5142   67.0791  -26.2361 H      404  EDO404      0.0000
@<TRIPOS>BOND
     1     1     2    1
     2     1     3    1
     3     1     5    1
     4     1     6    1
     5     2     7    1
     6     3     4    1
     7     3     8    1
     8     3     9    1
     9     4    10    1

