EDO_2_A_404
  -ISIS-            3D

 10  9  0  0  0  0  0  0  0  0  1 V2000
  -39.1660   59.6180  -29.3030 C   0  0  0  0  0
  -40.5410   60.0220  -29.3120 O   0  0  0  0  0
  -38.7240   59.3780  -27.8660 C   0  0  0  0  0
  -38.8760   60.5940  -27.1260 O   0  0  0  0  0
  -38.5440   60.4017  -29.7841 H   0  0  0  0  0
  -39.0571   58.6929  -29.9056 H   0  0  0  0  0
  -40.6148   60.7221  -28.6733 H   0  0  0  0  0
  -37.6619   59.0549  -27.8393 H   0  0  0  0  0
  -39.3324   58.5748  -27.3992 H   0  0  0  0  0
  -38.5925   60.4356  -26.2356 H   0  0  0  0  0
  1  2  1  0  0  0
  1  3  1  0  0  0
  1  5  1  0  0  0
  1  6  1  0  0  0
  2  7  1  0  0  0
  3  4  1  0  0  0
  3  8  1  0  0  0
  3  9  1  0  0  0
  4 10  1  0  0  0
M  END
$$$$
