@<TRIPOS>MOLECULE
EDO_3_A_409
 10 9 0 0 0
SMALL
NO_CHARGES

@<TRIPOS>ATOM
      1 C1        -84.8320   36.5150  -16.6510 C.3    409  EDO409      0.0000
      2 O1        -85.1730   37.8830  -16.8990 O.3    409  EDO409      0.0000
      3 C2        -84.6910   36.2910  -15.1490 C.3    409  EDO409      0.0000
      4 O2        -83.6280   37.1030  -14.6290 O.3    409  EDO409      0.0000
      5 H         -83.8897   36.2635  -17.1812 H      409  EDO409      0.0000
      6 H         -85.6288   35.8651  -17.0679 H      409  EDO409      0.0000
      7 H         -84.6048   38.4080  -16.3470 H      409  EDO409      0.0000
      8 H         -84.4924   35.2205  -14.9296 H      409  EDO409      0.0000
      9 H         -85.6343   36.5578  -14.6287 H      409  EDO409      0.0000
     10 H         -82.8168   36.6169  -14.6963 H      409  EDO409      0.0000
@<TRIPOS>BOND
     1     1     2    1
     2     1     3    1
     3     1     5    1
     4     1     6    1
     5     2     7    1
     6     3     4    1
     7     3     8    1
     8     3     9    1
     9     4    10    1

