EDO_3_A_403
  -ISIS-            3D

 10  9  0  0  0  0  0  0  0  0  1 V2000
 -103.1100   51.1650  -34.3660 C   0  0  0  0  0
 -101.7760   50.9580  -33.8840 O   0  0  0  0  0
 -103.1040   52.1800  -35.5020 C   0  0  0  0  0
 -102.8400   53.4860  -34.9770 O   0  0  0  0  0
 -103.7645   51.5070  -33.5367 H   0  0  0  0  0
 -103.5165   50.1976  -34.7305 H   0  0  0  0  0
 -101.8095   50.3188  -33.1848 H   0  0  0  0  0
 -104.0928   52.1970  -36.0057 H   0  0  0  0  0
 -102.3480   51.9189  -36.2716 H   0  0  0  0  0
 -102.0165   53.4267  -34.5078 H   0  0  0  0  0
  1  2  1  0  0  0
  1  3  1  0  0  0
  1  5  1  0  0  0
  1  6  1  0  0  0
  2  7  1  0  0  0
  3  4  1  0  0  0
  3  8  1  0  0  0
  3  9  1  0  0  0
  4 10  1  0  0  0
M  END
$$$$
