EDO_3_B_408
  -ISIS-            3D

 10  9  0  0  0  0  0  0  0  0  1 V2000
 -111.1210   45.6640   19.2180 C   0  0  0  0  0
 -110.8560   46.3270   17.9780 O   0  0  0  0  0
 -111.9160   46.5980   20.1220 C   0  0  0  0  0
 -113.1260   46.9710   19.4540 O   0  0  0  0  0
 -110.1588   45.3822   19.6928 H   0  0  0  0  0
 -111.6831   44.7262   19.0254 H   0  0  0  0  0
 -111.6857   46.6907   17.6899 H   0  0  0  0  0
 -111.3236   47.5068   20.3598 H   0  0  0  0  0
 -112.1575   46.0928   21.0809 H   0  0  0  0  0
 -113.6146   47.5467   20.0269 H   0  0  0  0  0
  1  2  1  0  0  0
  1  3  1  0  0  0
  1  5  1  0  0  0
  1  6  1  0  0  0
  2  7  1  0  0  0
  3  4  1  0  0  0
  3  8  1  0  0  0
  3  9  1  0  0  0
  4 10  1  0  0  0
M  END
$$$$
