@<TRIPOS>MOLECULE
EDO_2_A_410
 10 9 0 0 0
SMALL
NO_CHARGES

@<TRIPOS>ATOM
      1 C1        -87.1930   60.0200   -0.4130 C.3    410  EDO410      0.0000
      2 O1        -87.2130   61.0550   -1.4050 O.3    410  EDO410      0.0000
      3 C2        -88.1560   60.3560    0.7180 C.3    410  EDO410      0.0000
      4 O2        -89.4290   60.7280    0.1770 O.3    410  EDO410      0.0000
      5 H         -86.1592   59.9006   -0.0287 H      410  EDO410      0.0000
      6 H         -87.4785   59.0584   -0.8895 H      410  EDO410      0.0000
      7 H         -88.1276   61.2813   -1.5323 H      410  EDO410      0.0000
      8 H         -87.7545   61.1980    1.3212 H      410  EDO410      0.0000
      9 H         -88.2738   59.4855    1.3973 H      410  EDO410      0.0000
     10 H         -90.0081   60.9346    0.8984 H      410  EDO410      0.0000
@<TRIPOS>BOND
     1     1     2    1
     2     1     3    1
     3     1     5    1
     4     1     6    1
     5     2     7    1
     6     3     4    1
     7     3     8    1
     8     3     9    1
     9     4    10    1

