EDO_1_B_411
  -ISIS-            3D

 10  9  0  0  0  0  0  0  0  0  1 V2000
  -53.6230   12.7630   30.2650 C   0  0  0  0  0
  -53.2770   12.1300   29.0280 O   0  0  0  0  0
  -55.1110   12.5810   30.5470 C   0  0  0  0  0
  -55.3740   11.2240   30.9240 O   0  0  0  0  0
  -53.3851   13.8459   30.1954 H   0  0  0  0  0
  -53.0120   12.3425   31.0913 H   0  0  0  0  0
  -52.3511   12.2641   28.8752 H   0  0  0  0  0
  -55.7242   12.8562   29.6636 H   0  0  0  0  0
  -55.4243   13.2427   31.3811 H   0  0  0  0  0
  -55.0547   10.6799   30.2143 H   0  0  0  0  0
  1  2  1  0  0  0
  1  3  1  0  0  0
  1  5  1  0  0  0
  1  6  1  0  0  0
  2  7  1  0  0  0
  3  4  1  0  0  0
  3  8  1  0  0  0
  3  9  1  0  0  0
  4 10  1  0  0  0
M  END
$$$$
