@<TRIPOS>MOLECULE
EDO_1_A_409
 10 9 0 0 0
SMALL
NO_CHARGES

@<TRIPOS>ATOM
      1 C1        -64.6770   38.9940  -16.6510 C.3    409  EDO409      0.0000
      2 O1        -65.6910   38.0140  -16.8990 O.3    409  EDO409      0.0000
      3 C2        -64.5530   39.2280  -15.1490 C.3    409  EDO409      0.0000
      4 O2        -65.7880   39.7420  -14.6290 O.3    409  EDO409      0.0000
      5 H         -64.9317   39.9368  -17.1789 H      409  EDO409      0.0000
      6 H         -63.7158   38.6307  -17.0693 H      409  EDO409      0.0000
      7 H         -66.4578   38.2966  -16.4140 H      409  EDO409      0.0000
      8 H         -63.7369   39.9529  -14.9443 H      409  EDO409      0.0000
      9 H         -64.2942   38.2808  -14.6300 H      409  EDO409      0.0000
     10 H         -65.6805   39.8838  -13.6980 H      409  EDO409      0.0000
@<TRIPOS>BOND
     1     1     2    1
     2     1     3    1
     3     1     5    1
     4     1     6    1
     5     2     7    1
     6     3     4    1
     7     3     8    1
     8     3     9    1
     9     4    10    1

