EDO_1_A_409
  -ISIS-            3D

 10  9  0  0  0  0  0  0  0  0  1 V2000
  -64.6770   38.9940  -16.6510 C   0  0  0  0  0
  -65.6910   38.0140  -16.8990 O   0  0  0  0  0
  -64.5530   39.2280  -15.1490 C   0  0  0  0  0
  -65.7880   39.7420  -14.6290 O   0  0  0  0  0
  -64.9317   39.9368  -17.1789 H   0  0  0  0  0
  -63.7158   38.6307  -17.0693 H   0  0  0  0  0
  -66.4578   38.2966  -16.4140 H   0  0  0  0  0
  -63.7369   39.9529  -14.9443 H   0  0  0  0  0
  -64.2942   38.2808  -14.6300 H   0  0  0  0  0
  -65.6805   39.8838  -13.6980 H   0  0  0  0  0
  1  2  1  0  0  0
  1  3  1  0  0  0
  1  5  1  0  0  0
  1  6  1  0  0  0
  2  7  1  0  0  0
  3  4  1  0  0  0
  3  8  1  0  0  0
  3  9  1  0  0  0
  4 10  1  0  0  0
M  END
$$$$
