@<TRIPOS>MOLECULE
EDO_1_B_411
 10 9 0 0 0
SMALL
NO_CHARGES

@<TRIPOS>ATOM
      1 C1        -53.6230   12.7630   30.2650 C.3    411  EDO411      0.0000
      2 O1        -53.2770   12.1300   29.0280 O.3    411  EDO411      0.0000
      3 C2        -55.1110   12.5810   30.5470 C.3    411  EDO411      0.0000
      4 O2        -55.3740   11.2240   30.9240 O.3    411  EDO411      0.0000
      5 H         -53.3851   13.8459   30.1954 H      411  EDO411      0.0000
      6 H         -53.0120   12.3425   31.0913 H      411  EDO411      0.0000
      7 H         -52.3511   12.2641   28.8752 H      411  EDO411      0.0000
      8 H         -55.7242   12.8562   29.6636 H      411  EDO411      0.0000
      9 H         -55.4243   13.2427   31.3811 H      411  EDO411      0.0000
     10 H         -55.0547   10.6799   30.2143 H      411  EDO411      0.0000
@<TRIPOS>BOND
     1     1     2    1
     2     1     3    1
     3     1     5    1
     4     1     6    1
     5     2     7    1
     6     3     4    1
     7     3     8    1
     8     3     9    1
     9     4    10    1

