EDO_1_B_406
  -ISIS-            3D

 10  9  0  0  0  0  0  0  0  0  1 V2000
  -78.3600    2.1360   24.4690 C   0  0  0  0  0
  -78.7960    3.2040   25.3180 O   0  0  0  0  0
  -79.2550    2.0700   23.2380 C   0  0  0  0  0
  -79.2490    3.3430   22.5800 O   0  0  0  0  0
  -78.3962    1.1776   25.0281 H   0  0  0  0  0
  -77.3055    2.3071   24.1643 H   0  0  0  0  0
  -78.1265    3.3576   25.9718 H   0  0  0  0  0
  -80.2926    1.8068   23.5348 H   0  0  0  0  0
  -78.8970    1.2868   22.5374 H   0  0  0  0  0
  -79.9512    3.3526   21.9429 H   0  0  0  0  0
  1  2  1  0  0  0
  1  3  1  0  0  0
  1  5  1  0  0  0
  1  6  1  0  0  0
  2  7  1  0  0  0
  3  4  1  0  0  0
  3  8  1  0  0  0
  3  9  1  0  0  0
  4 10  1  0  0  0
M  END
$$$$
