@<TRIPOS>MOLECULE
EDO_3_B_408
 10 9 0 0 0
SMALL
NO_CHARGES

@<TRIPOS>ATOM
      1 C1       -111.1210   45.6640   19.2180 C.3    408  EDO408      0.0000
      2 O1       -110.8560   46.3270   17.9780 O.3    408  EDO408      0.0000
      3 C2       -111.9160   46.5980   20.1220 C.3    408  EDO408      0.0000
      4 O2       -113.1260   46.9710   19.4540 O.3    408  EDO408      0.0000
      5 H        -110.1588   45.3822   19.6928 H      408  EDO408      0.0000
      6 H        -111.6831   44.7262   19.0254 H      408  EDO408      0.0000
      7 H        -111.6857   46.6907   17.6899 H      408  EDO408      0.0000
      8 H        -111.3236   47.5068   20.3598 H      408  EDO408      0.0000
      9 H        -112.1575   46.0928   21.0809 H      408  EDO408      0.0000
     10 H        -113.6146   47.5467   20.0269 H      408  EDO408      0.0000
@<TRIPOS>BOND
     1     1     2    1
     2     1     3    1
     3     1     5    1
     4     1     6    1
     5     2     7    1
     6     3     4    1
     7     3     8    1
     8     3     9    1
     9     4    10    1

