@<TRIPOS>MOLECULE
EDO_1_A_408
 10 9 0 0 0
SMALL
NO_CHARGES

@<TRIPOS>ATOM
      1 C1        -70.7590    6.9580  -19.8030 C.3    408  EDO408      0.0000
      2 O1        -71.5970    8.1030  -19.6100 O.3    408  EDO408      0.0000
      3 C2        -71.3720    6.0710  -20.8770 C.3    408  EDO408      0.0000
      4 O2        -71.6070    6.8620  -22.0470 O.3    408  EDO408      0.0000
      5 H         -70.6569    6.4029  -18.8471 H      408  EDO408      0.0000
      6 H         -69.7437    7.2856  -20.1127 H      408  EDO408      0.0000
      7 H         -71.1136    8.7454  -19.1071 H      408  EDO408      0.0000
      8 H         -72.3310    5.6414  -20.5167 H      408  EDO408      0.0000
      9 H         -70.6947    5.2269  -21.1238 H      408  EDO408      0.0000
     10 H         -72.1614    6.3667  -22.6358 H      408  EDO408      0.0000
@<TRIPOS>BOND
     1     1     2    1
     2     1     3    1
     3     1     5    1
     4     1     6    1
     5     2     7    1
     6     3     4    1
     7     3     8    1
     8     3     9    1
     9     4    10    1

