EDO_2_B_409
  -ISIS-            3D

 10  9  0  0  0  0  0  0  0  0  1 V2000
  -63.8720   42.0680   14.4680 C   0  0  0  0  0
  -65.1390   42.3120   13.8410 O   0  0  0  0  0
  -63.7420   42.9280   15.7200 C   0  0  0  0  0
  -63.7410   44.3130   15.3540 O   0  0  0  0  0
  -63.0507   42.2922   13.7550 H   0  0  0  0  0
  -63.7959   40.9931   14.7369 H   0  0  0  0  0
  -65.1989   41.7621   13.0712 H   0  0  0  0  0
  -62.7954   42.6982   16.2512 H   0  0  0  0  0
  -64.5739   42.7281   16.4274 H   0  0  0  0  0
  -64.5035   44.4427   14.8019 H   0  0  0  0  0
  1  2  1  0  0  0
  1  3  1  0  0  0
  1  5  1  0  0  0
  1  6  1  0  0  0
  2  7  1  0  0  0
  3  4  1  0  0  0
  3  8  1  0  0  0
  3  9  1  0  0  0
  4 10  1  0  0  0
M  END
$$$$
