@<TRIPOS>MOLECULE
EDO_2_B_407
 10 9 0 0 0
SMALL
NO_CHARGES

@<TRIPOS>ATOM
      1 C1        -60.1790   66.6660   13.1290 C.3    407  EDO407      0.0000
      2 O1        -59.5700   67.8870   13.5610 O.3    407  EDO407      0.0000
      3 C2        -59.1570   65.8380   12.3620 C.3    407  EDO407      0.0000
      4 O2        -58.6690   66.5880   11.2440 O.3    407  EDO407      0.0000
      5 H         -61.0458   66.9077   12.4794 H      407  EDO407      0.0000
      6 H         -60.5720   66.1024   14.0014 H      407  EDO407      0.0000
      7 H         -59.1927   67.7490   14.4198 H      407  EDO407      0.0000
      8 H         -59.6153   64.8974   11.9929 H      407  EDO407      0.0000
      9 H         -58.3061   65.5549   13.0165 H      407  EDO407      0.0000
     10 H         -58.5245   67.4741   11.5564 H      407  EDO407      0.0000
@<TRIPOS>BOND
     1     1     2    1
     2     1     3    1
     3     1     5    1
     4     1     6    1
     5     2     7    1
     6     3     4    1
     7     3     8    1
     8     3     9    1
     9     4    10    1

