@<TRIPOS>MOLECULE
EDO_1_A_412
 10 9 0 0 0
SMALL
NO_CHARGES

@<TRIPOS>ATOM
      1 C1        -99.2810    5.0560  -36.1550 C.3    412  EDO412      0.0000
      2 O1        -98.9590    5.6070  -37.4370 O.3    412  EDO412      0.0000
      3 C2       -100.6160    5.5990  -35.6590 C.3    412  EDO412      0.0000
      4 O2       -101.6470    5.2960  -36.6060 O.3    412  EDO412      0.0000
      5 H         -98.4768    5.3076  -35.4314 H      412  EDO412      0.0000
      6 H         -99.3234    3.9484  -36.2288 H      412  EDO412      0.0000
      7 H         -98.1248    5.2497  -37.7128 H      412  EDO412      0.0000
      8 H        -100.5615    6.6983  -35.5126 H      412  EDO412      0.0000
      9 H        -100.8814    5.1503  -34.6797 H      412  EDO412      0.0000
     10 H        -101.3071    5.5480  -37.4567 H      412  EDO412      0.0000
@<TRIPOS>BOND
     1     1     2    1
     2     1     3    1
     3     1     5    1
     4     1     6    1
     5     2     7    1
     6     3     4    1
     7     3     8    1
     8     3     9    1
     9     4    10    1

