@<TRIPOS>MOLECULE
EDO_2_B_411
 10 9 0 0 0
SMALL
NO_CHARGES

@<TRIPOS>ATOM
      1 C1        -59.7120   77.8970   30.2650 C.3    411  EDO411      0.0000
      2 O1        -59.3360   78.5140   29.0280 O.3    411  EDO411      0.0000
      3 C2        -58.8100   76.7000   30.5470 C.3    411  EDO411      0.0000
      4 O2        -57.5030   77.1510   30.9240 O.3    411  EDO411      0.0000
      5 H         -60.7686   77.5611   30.1946 H      411  EDO411      0.0000
      6 H         -59.6542   78.6362   31.0916 H      411  EDO411      0.0000
      7 H         -59.9164   79.2475   28.8743 H      411  EDO411      0.0000
      8 H         -58.7415   76.0314   29.6636 H      411  EDO411      0.0000
      9 H         -59.2262   76.0976   31.3811 H      411  EDO411      0.0000
     10 H         -57.1924   77.7013   30.2151 H      411  EDO411      0.0000
@<TRIPOS>BOND
     1     1     2    1
     2     1     3    1
     3     1     5    1
     4     1     6    1
     5     2     7    1
     6     3     4    1
     7     3     8    1
     8     3     9    1
     9     4    10    1

