EDO_2_B_411
  -ISIS-            3D

 10  9  0  0  0  0  0  0  0  0  1 V2000
  -59.7120   77.8970   30.2650 C   0  0  0  0  0
  -59.3360   78.5140   29.0280 O   0  0  0  0  0
  -58.8100   76.7000   30.5470 C   0  0  0  0  0
  -57.5030   77.1510   30.9240 O   0  0  0  0  0
  -60.7686   77.5611   30.1946 H   0  0  0  0  0
  -59.6542   78.6362   31.0916 H   0  0  0  0  0
  -59.9164   79.2475   28.8743 H   0  0  0  0  0
  -58.7415   76.0314   29.6636 H   0  0  0  0  0
  -59.2262   76.0976   31.3811 H   0  0  0  0  0
  -57.1924   77.7013   30.2151 H   0  0  0  0  0
  1  2  1  0  0  0
  1  3  1  0  0  0
  1  5  1  0  0  0
  1  6  1  0  0  0
  2  7  1  0  0  0
  3  4  1  0  0  0
  3  8  1  0  0  0
  3  9  1  0  0  0
  4 10  1  0  0  0
M  END
$$$$
