@<TRIPOS>MOLECULE
EDO_1_B_404
 10 9 0 0 0
SMALL
NO_CHARGES

@<TRIPOS>ATOM
      1 C1        -48.3120   31.9920   26.2180 C.3    404  EDO404      0.0000
      2 O1        -47.9350   33.3620   26.4010 O.3    404  EDO404      0.0000
      3 C2        -49.6720   31.9070   25.5310 C.3    404  EDO404      0.0000
      4 O2        -50.6660   32.5300   26.3540 O.3    404  EDO404      0.0000
      5 H         -48.3366   31.4795   27.2026 H      404  EDO404      0.0000
      6 H         -47.5372   31.4866   25.6054 H      404  EDO404      0.0000
      7 H         -48.6817   33.7904   26.8035 H      404  EDO404      0.0000
      8 H         -49.9464   30.8447   25.3587 H      404  EDO404      0.0000
      9 H         -49.6376   32.4085   24.5407 H      404  EDO404      0.0000
     10 H         -51.5019   32.4599   25.9127 H      404  EDO404      0.0000
@<TRIPOS>BOND
     1     1     2    1
     2     1     3    1
     3     1     5    1
     4     1     6    1
     5     2     7    1
     6     3     4    1
     7     3     8    1
     8     3     9    1
     9     4    10    1

