@<TRIPOS>MOLECULE
EDO_1_A_404
 10 9 0 0 0
SMALL
NO_CHARGES

@<TRIPOS>ATOM
      1 C1        -79.7260    4.1100  -29.3030 C.3    404  EDO404      0.0000
      2 O1        -78.6890    5.0990  -29.3120 O.3    404  EDO404      0.0000
      3 C2        -80.1550    3.8470  -27.8660 C.3    404  EDO404      0.0000
      4 O2        -79.0260    3.3710  -27.1260 O.3    404  EDO404      0.0000
      5 H         -79.3589    3.1799  -29.7854 H      404  EDO404      0.0000
      6 H         -80.5820    4.4794  -29.9044 H      404  EDO404      0.0000
      7 H         -78.0467    4.8141  -28.6719 H      404  EDO404      0.0000
      8 H         -80.9652    3.0880  -27.8398 H      404  EDO404      0.0000
      9 H         -80.5470    4.7751  -27.3988 H      404  EDO404      0.0000
     10 H         -79.3052    3.2022  -26.2360 H      404  EDO404      0.0000
@<TRIPOS>BOND
     1     1     2    1
     2     1     3    1
     3     1     5    1
     4     1     6    1
     5     2     7    1
     6     3     4    1
     7     3     8    1
     8     3     9    1
     9     4    10    1

