@<TRIPOS>MOLECULE
EDO_2_A_407
 10 9 0 0 0
SMALL
NO_CHARGES

@<TRIPOS>ATOM
      1 C1        -47.8160   44.3950  -23.5700 C.3    407  EDO407      0.0000
      2 O1        -48.3230   45.4890  -22.7980 O.3    407  EDO407      0.0000
      3 C2        -46.7120   43.6860  -22.7970 C.3    407  EDO407      0.0000
      4 O2        -46.3300   42.5080  -23.5170 O.3    407  EDO407      0.0000
      5 H         -47.4467   44.7576  -24.5525 H      407  EDO407      0.0000
      6 H         -48.6516   43.6932  -23.7726 H      407  EDO407      0.0000
      7 H         -47.7653   46.2419  -22.9428 H      407  EDO407      0.0000
      8 H         -47.0712   43.4003  -21.7856 H      407  EDO407      0.0000
      9 H         -45.8315   44.3505  -22.6710 H      407  EDO407      0.0000
     10 H         -45.6897   42.0378  -22.9992 H      407  EDO407      0.0000
@<TRIPOS>BOND
     1     1     2    1
     2     1     3    1
     3     1     5    1
     4     1     6    1
     5     2     7    1
     6     3     4    1
     7     3     8    1
     8     3     9    1
     9     4    10    1

