U3P_1_B_401
  -ISIS-            3D

 33 34  0  0  0  0  0  0  0  0  1 V2000
  -41.4630   31.9910   28.7780 N   0  0  0  0  0
  -40.8030   31.7270   29.9650 C   0  0  0  0  0
  -39.4400   31.6090   29.8520 N   0  0  0  0  0
  -38.6870   31.7250   28.7000 C   0  0  0  0  0
  -39.4450   31.9970   27.5130 C   0  0  0  0  0
  -40.7790   32.1170   27.5920 C   0  0  0  0  0
  -41.3830   31.6070   31.0360 O   0  0  0  0  0
  -37.4650   31.5930   28.7610 O   0  0  0  0  0
  -46.8170   33.4370   30.1630 P   0  0  0  0  0
  -47.4920   32.4780   31.1240 O   0  0  0  0  0
  -47.6920   33.7580   28.9650 O   0  0  0  0  0
  -46.3240   34.6890   30.8600 O   0  0  0  0  0
  -43.4730   33.7510   25.8150 O   0  0  0  0  0
  -44.6580   32.9890   25.9970 C   0  0  0  0  0
  -44.7250   32.3640   27.3730 C   0  0  0  0  0
  -43.4910   31.6410   27.6330 O   0  0  0  0  0
  -44.8860   33.3390   28.5400 C   0  0  0  0  0
  -45.5280   32.6460   29.6050 O   0  0  0  0  0
  -43.4310   33.5600   28.9520 C   0  0  0  0  0
  -43.2630   34.0710   30.2580 O   0  0  0  0  0
  -42.9320   32.1210   28.8360 C   0  0  0  0  0
  -38.8967   32.0989   26.5634 H   0  0  0  0  0
  -41.3880   32.3252   26.7012 H   0  0  0  0  0
  -43.4913   34.1307   24.9466 H   0  0  0  0  0
  -44.6911   32.1904   25.2251 H   0  0  0  0  0
  -45.5455   33.6350   25.8290 H   0  0  0  0  0
  -45.5736   31.6458   27.3817 H   0  0  0  0  0
  -45.3703   34.2881   28.2357 H   0  0  0  0  0
  -42.9122   34.2174   28.2244 H   0  0  0  0  0
  -42.4509   33.7405   30.6233 H   0  0  0  0  0
  -43.3452   31.5159   29.6725 H   0  0  0  0  0
  -47.1972   35.2731   31.2801 H   0  0  0  0  0
  -38.9244   31.4116   30.7207 H   0  0  0  0  0
  1  2  1  0  0  0
  1  6  1  0  0  0
  1 21  1  0  0  0
  2  3  1  0  0  0
  2  7  2  0  0  0
  3  4  1  0  0  0
  4  5  1  0  0  0
  4  8  2  0  0  0
  5  6  2  0  0  0
  5 22  1  0  0  0
  6 23  1  0  0  0
  9 10  2  0  0  0
  9 11  2  0  0  0
  9 12  1  0  0  0
  9 18  1  0  0  0
 13 14  1  0  0  0
 13 24  1  0  0  0
 14 15  1  0  0  0
 14 25  1  0  0  0
 14 26  1  0  0  0
 15 16  1  0  0  0
 15 17  1  0  0  0
 15 27  1  0  0  0
 16 21  1  0  0  0
 17 18  1  0  0  0
 17 19  1  0  0  0
 17 28  1  0  0  0
 19 20  1  0  0  0
 19 21  1  0  0  0
 19 29  1  0  0  0
 20 30  1  0  0  0
 21 31  1  0  0  0
 12 32  1  0  0  0
  3 33  1  0  0  0
M  END
$$$$
