@<TRIPOS>MOLECULE
U3P_3_B_401
 33 34 0 0 0
SMALL
NO_CHARGES

@<TRIPOS>ATOM
      1 N1       -102.5030   19.9130   28.7780 N.ar   401  U3P401      0.0000
      2 C2       -103.0620   19.4730   29.9650 C.ar   401  U3P401      0.0000
      3 N3       -103.8460   18.3520   29.8520 N.ar   401  U3P401      0.0000
      4 C4       -104.1220   17.6410   28.7000 C.ar   401  U3P401      0.0000
      5 C5       -103.5070   18.1620   27.5130 C.ar   401  U3P401      0.0000
      6 C6       -102.7360   19.2570   27.5920 C.ar   401  U3P401      0.0000
      7 O2       -102.8760   20.0350   31.0360 O.2    401  U3P401      0.0000
      8 O4       -104.8470   16.6490   28.7610 O.2    401  U3P401      0.0000
      9 P         -98.5740   23.8260   30.1630 P.3    401  U3P401      0.0000
     10 O1P       -99.0670   24.8900   31.1240 O.co2  401  U3P401     -0.5000
     11 O2P       -97.8590   24.4230   28.9650 O.co2  401  U3P401     -0.5000
     12 O3P       -97.7360   22.7730   30.8600 O.co2  401  U3P401      0.0000
     13 O5'       -99.9740   20.7730   25.8150 O.3    401  U3P401      0.0000
     14 C5'      -100.0420   22.1800   25.9970 C.3    401  U3P401      0.0000
     15 C4'      -100.5490   22.5510   27.3730 C.3    401  U3P401      0.0000
     16 O4'      -101.7930   21.8440   27.6330 O.3    401  U3P401      0.0000
     17 C3'       -99.6250   22.2030   28.5400 C.3    401  U3P401      0.0000
     18 O3'       -99.9040   23.1050   29.6050 O.3    401  U3P401      0.0000
     19 C2'      -100.1610   20.8320   28.9520 C.3    401  U3P401      0.0000
     20 O2'       -99.8020   20.4310   30.2580 O.3    401  U3P401      0.0000
     21 C1'      -101.6560   21.1200   28.8360 C.3    401  U3P401      0.0000
     22 H        -103.6927   17.6362   26.5633 H      401  U3P401      0.0000
     23 H        -102.2510   19.6801   26.7011 H      401  U3P401      0.0000
     24 H         -99.6380   20.5991   24.9458 H      401  U3P401      0.0000
     25 H        -100.7177   22.6076   25.2255 H      401  U3P401      0.0000
     26 H         -99.0392   22.6261   25.8281 H      401  U3P401      0.0000
     27 H        -100.7464   23.6451   27.3815 H      401  U3P401      0.0000
     28 H         -98.5610   22.1478   28.2351 H      401  U3P401      0.0000
     29 H         -99.8511   20.0541   28.2243 H      401  U3P401      0.0000
     30 H        -100.4922   19.8888   30.6213 H      401  U3P401      0.0000
     31 H        -101.9732   21.7803   29.6727 H      401  U3P401      0.0000
     32 H         -98.3653   21.8626   31.1094 H      401  U3P401      0.0000
     33 H        -104.2750   18.0047   30.7207 H      401  U3P401      0.0000
@<TRIPOS>BOND
     1     1     2   ar
     2     1     6   ar
     3     1    21    1
     4     2     3   ar
     5     2     7    2
     6     3     4   ar
     7     4     5   ar
     8     4     8    2
     9     5     6   ar
    10     5    22    1
    11     6    23    1
    12     9    10   ar
    13     9    11   ar
    14     9    12    1
    15     9    18    1
    16    13    14    1
    17    13    24    1
    18    14    15    1
    19    14    25    1
    20    14    26    1
    21    15    16    1
    22    15    17    1
    23    15    27    1
    24    16    21    1
    25    17    18    1
    26    17    19    1
    27    17    28    1
    28    19    20    1
    29    19    21    1
    30    19    29    1
    31    20    30    1
    32    21    31    1
    33    12    32    1
    34     3    33    1

