@<TRIPOS>MOLECULE
U3P_1_A_401
 33 34 0 0 0
SMALL
NO_CHARGES

@<TRIPOS>ATOM
      1 N1        -98.4670   16.2420  -29.7870 N.ar   401  U3P401      0.0000
      2 C2        -98.8130   15.6300  -30.9780 C.ar   401  U3P401      0.0000
      3 N3        -99.9730   14.8980  -30.9340 N.ar   401  U3P401      0.0000
      4 C4       -100.8060   14.7220  -29.8460 C.ar   401  U3P401      0.0000
      5 C5       -100.3790   15.3890  -28.6500 C.ar   401  U3P401      0.0000
      6 C6        -99.2480   16.1110  -28.6630 C.ar   401  U3P401      0.0000
      7 O2        -98.1390   15.7250  -31.9960 O.2    401  U3P401      0.0000
      8 O4       -101.8190   14.0330  -29.9660 O.2    401  U3P401      0.0000
      9 P         -94.4250   20.1050  -30.9970 P.3    401  U3P401      0.0000
     10 O1P       -93.8310   20.8720  -29.8290 O.co2  401  U3P401     -0.5000
     11 O2P       -93.3560   19.5830  -31.9380 O.co2  401  U3P401     -0.5000
     12 O3P       -95.4810   20.9100  -31.7260 O.co2  401  U3P401      0.0000
     13 O5'       -97.6820   18.7820  -26.7790 O.3    401  U3P401      0.0000
     14 C5'       -96.2730   18.6320  -26.8680 C.3    401  U3P401      0.0000
     15 C4'       -95.8560   18.1140  -28.2260 C.3    401  U3P401      0.0000
     16 O4'       -96.5940   16.8970  -28.5190 O.3    401  U3P401      0.0000
     17 C3'       -96.1100   19.0560  -29.4040 C.3    401  U3P401      0.0000
     18 O3'       -95.1340   18.7850  -30.4010 O.3    401  U3P401      0.0000
     19 C2'       -97.4540   18.5440  -29.9250 C.3    401  U3P401      0.0000
     20 O2'       -97.7340   18.8800  -31.2680 O.3    401  U3P401      0.0000
     21 C1'       -97.2260   17.0420  -29.7720 C.3    401  U3P401      0.0000
     22 H        -101.0042   15.2837  -27.7495 H      401  U3P401      0.0000
     23 H         -98.8929   16.6357  -27.7649 H      401  U3P401      0.0000
     24 H         -97.8935   19.1165  -25.9176 H      401  U3P401      0.0000
     25 H         -95.9353   17.9264  -26.0790 H      401  U3P401      0.0000
     26 H         -95.7806   19.6060  -26.6631 H      401  U3P401      0.0000
     27 H         -94.7710   17.8753  -28.1816 H      401  U3P401      0.0000
     28 H         -96.1653   20.1171  -29.0893 H      401  U3P401      0.0000
     29 H         -98.2812   18.8875  -29.2700 H      401  U3P401      0.0000
     30 H         -98.3439   18.2487  -31.6294 H      401  U3P401      0.0000
     31 H         -96.5189   16.6939  -30.5563 H      401  U3P401      0.0000
     32 H         -96.3032   20.2311  -32.1125 H      401  U3P401      0.0000
     33 H        -100.2510   14.4292  -31.8070 H      401  U3P401      0.0000
@<TRIPOS>BOND
     1     1     2   ar
     2     1     6   ar
     3     1    21    1
     4     2     3   ar
     5     2     7    2
     6     3     4   ar
     7     4     5   ar
     8     4     8    2
     9     5     6   ar
    10     5    22    1
    11     6    23    1
    12     9    10   ar
    13     9    11   ar
    14     9    12    1
    15     9    18    1
    16    13    14    1
    17    13    24    1
    18    14    15    1
    19    14    25    1
    20    14    26    1
    21    15    16    1
    22    15    17    1
    23    15    27    1
    24    16    21    1
    25    17    18    1
    26    17    19    1
    27    17    28    1
    28    19    20    1
    29    19    21    1
    30    19    29    1
    31    20    30    1
    32    21    31    1
    33    12    32    1
    34     3    33    1

