U3P_2_B_401
  -ISIS-            3D

 33 34  0  0  0  0  0  0  0  0  1 V2000
  -82.4440   78.8140   28.7780 N   0  0  0  0  0
  -82.5450   79.5180   29.9650 C   0  0  0  0  0
  -83.1240   80.7570   29.8520 N   0  0  0  0  0
  -83.6010   81.3510   28.7000 C   0  0  0  0  0
  -83.4580   80.5590   27.5130 C   0  0  0  0  0
  -82.8950   79.3440   27.5920 C   0  0  0  0  0
  -82.1510   79.0760   31.0360 O   0  0  0  0  0
  -84.0980   82.4760   28.7610 O   0  0  0  0  0
  -81.0190   73.4550   30.1630 P   0  0  0  0  0
  -79.8510   73.3500   31.1240 O   0  0  0  0  0
  -80.8590   72.5360   28.9650 O   0  0  0  0  0
  -82.3500   73.2560   30.8600 O   0  0  0  0  0
  -82.9630   76.1940   25.8150 O   0  0  0  0  0
  -81.7100   75.5480   25.9970 C   0  0  0  0  0
  -81.1360   75.8030   27.3730 C   0  0  0  0  0
  -81.1260   77.2330   27.6330 O   0  0  0  0  0
  -81.8990   75.1760   28.5400 C   0  0  0  0  0
  -80.9780   74.9660   29.6050 O   0  0  0  0  0
  -82.8180   76.3260   28.9520 C   0  0  0  0  0
  -83.3450   76.2160   30.2580 O   0  0  0  0  0
  -81.8220   77.4770   28.8360 C   0  0  0  0  0
  -83.8205   80.9831   26.5635 H   0  0  0  0  0
  -82.7706   78.7126   26.7011 H   0  0  0  0  0
  -83.2820   75.9894   24.9461 H   0  0  0  0  0
  -81.0017   75.9186   25.2252 H   0  0  0  0  0
  -81.8259   74.4564   25.8290 H   0  0  0  0  0
  -80.0897   75.4270   27.3817 H   0  0  0  0  0
  -82.4789   74.2823   28.2348 H   0  0  0  0  0
  -83.6467   76.4463   28.2243 H   0  0  0  0  0
  -83.4703   77.0849   30.6207 H   0  0  0  0  0
  -81.0916   77.4217   29.6727 H   0  0  0  0  0
  -82.8254   74.2562   31.1063 H   0  0  0  0  0
  -83.2107   81.3023   30.7206 H   0  0  0  0  0
  1  2  1  0  0  0
  1  6  1  0  0  0
  1 21  1  0  0  0
  2  3  1  0  0  0
  2  7  2  0  0  0
  3  4  1  0  0  0
  4  5  1  0  0  0
  4  8  2  0  0  0
  5  6  2  0  0  0
  5 22  1  0  0  0
  6 23  1  0  0  0
  9 10  2  0  0  0
  9 11  2  0  0  0
  9 12  1  0  0  0
  9 18  1  0  0  0
 13 14  1  0  0  0
 13 24  1  0  0  0
 14 15  1  0  0  0
 14 25  1  0  0  0
 14 26  1  0  0  0
 15 16  1  0  0  0
 15 17  1  0  0  0
 15 27  1  0  0  0
 16 21  1  0  0  0
 17 18  1  0  0  0
 17 19  1  0  0  0
 17 28  1  0  0  0
 19 20  1  0  0  0
 19 21  1  0  0  0
 19 29  1  0  0  0
 20 30  1  0  0  0
 21 31  1  0  0  0
 12 32  1  0  0  0
  3 33  1  0  0  0
M  END
$$$$
