@<TRIPOS>MOLECULE
DMS_2_A_403
 10 9 0 0 0
SMALL
NO_CHARGES

@<TRIPOS>ATOM
      1 S          -2.3380  -18.9630   -8.0740 S.o    403  DMS403      0.0000
      2 O          -3.6660  -18.7400   -8.7950 O.2    403  DMS403      0.0000
      3 C1         -1.0940  -18.1750   -9.0670 C.3    403  DMS403      0.0000
      4 C2         -1.8930  -20.6370   -8.4940 C.3    403  DMS403      0.0000
      5 H          -0.0853  -18.4506   -8.6971 H      403  DMS403      0.0000
      6 H          -1.2123  -17.0746   -8.9942 H      403  DMS403      0.0000
      7 H          -1.1949  -18.4778  -10.1296 H      403  DMS403      0.0000
      8 H          -0.8606  -20.8503   -8.1492 H      403  DMS403      0.0000
      9 H          -1.9572  -20.7932   -9.5908 H      403  DMS403      0.0000
     10 H          -2.5894  -21.3373   -7.9892 H      403  DMS403      0.0000
@<TRIPOS>BOND
     1     1     2    2
     2     1     3    1
     3     1     4    1
     4     3     5    1
     5     3     6    1
     6     3     7    1
     7     4     8    1
     8     4     9    1
     9     4    10    1

