@<TRIPOS>MOLECULE
DMS_2_A_402
 10 9 0 0 0
SMALL
NO_CHARGES

@<TRIPOS>ATOM
      1 S          -6.1960   -0.9880    6.3280 S.o    402  DMS402      0.0000
      2 O          -7.1180   -0.8520    7.5200 O.2    402  DMS402      0.0000
      3 C1         -7.2550   -0.8750    4.8970 C.3    402  DMS402      0.0000
      4 C2         -5.8040   -2.7040    6.1750 C.3    402  DMS402      0.0000
      5 H          -6.6748   -1.1056    3.9801 H      402  DMS402      0.0000
      6 H          -7.6534    0.1572    4.8179 H      402  DMS402      0.0000
      7 H          -8.1038   -1.5835    4.9866 H      402  DMS402      0.0000
      8 H          -5.2567   -2.8835    5.2270 H      402  DMS402      0.0000
      9 H          -6.7287   -3.3166    6.1898 H      402  DMS402      0.0000
     10 H          -5.1574   -3.0090    7.0232 H      402  DMS402      0.0000
@<TRIPOS>BOND
     1     1     2    2
     2     1     3    1
     3     1     4    1
     4     3     5    1
     5     3     6    1
     6     3     7    1
     7     4     8    1
     8     4     9    1
     9     4    10    1

