@<TRIPOS>MOLECULE
DMS_2_A_401
 10 9 0 0 0
SMALL
NO_CHARGES

@<TRIPOS>ATOM
      1 S          -7.1360  -27.9800  -21.5330 S.o    401  DMS401      0.0000
      2 O          -7.8330  -26.9410  -22.3140 O.2    401  DMS401      0.0000
      3 C1         -5.8440  -28.5970  -22.5870 C.3    401  DMS401      0.0000
      4 C2         -6.1060  -27.1520  -20.3670 C.3    401  DMS401      0.0000
      5 H          -5.1935  -29.2924  -22.0181 H      401  DMS401      0.0000
      6 H          -5.2334  -27.7595  -22.9825 H      401  DMS401      0.0000
      7 H          -6.2964  -29.1466  -23.4378 H      401  DMS401      0.0000
      8 H          -5.4529  -27.8856  -19.8516 H      401  DMS401      0.0000
      9 H          -6.7405  -26.6469  -19.6102 H      401  DMS401      0.0000
     10 H          -5.4777  -26.3914  -20.8744 H      401  DMS401      0.0000
@<TRIPOS>BOND
     1     1     2    2
     2     1     3    1
     3     1     4    1
     4     3     5    1
     5     3     6    1
     6     3     7    1
     7     4     8    1
     8     4     9    1
     9     4    10    1

