BAQ_1_A_402
  -ISIS-            3D

  9  9  0  0  0  0  0  0  0  0  1 V2000
   -0.8710    9.9090   -9.4130 O   0  0  0  0  0
   -0.8460    9.3830   -8.3060 C   0  0  0  0  0
   -1.9960    9.2780   -7.3510 C   0  0  0  0  0
   -1.5030    8.3390   -6.2810 C   0  0  0  0  0
    0.0020    8.3480   -6.4080 C   0  0  0  0  0
    0.2160    8.8060   -7.7680 N   0  0  0  0  0
   -3.0007    9.6850   -7.5156 H   0  0  0  0  0
   -2.0963    7.8890   -5.4754 H   0  0  0  0  0
    0.7649    7.9468   -5.7346 H   0  0  0  0  0
  1  2  2  0  0  0
  2  3  1  0  0  0
  2  6  1  0  0  0
  3  4  1  0  0  0
  3  7  1  0  0  0
  4  5  1  0  0  0
  4  8  1  0  0  0
  5  6  1  0  0  0
  5  9  1  0  0  0
M  END
$$$$
