@<TRIPOS>MOLECULE
DMS_2_A_404
 10 9 0 0 0
SMALL
NO_CHARGES

@<TRIPOS>ATOM
      1 S          -6.2110   -0.9610    6.3090 S.o    404  DMS404      0.0000
      2 O          -7.0130   -0.6090    7.5140 O.2    404  DMS404      0.0000
      3 C1         -5.8330   -2.7350    6.2660 C.3    404  DMS404      0.0000
      4 C2         -7.2610   -0.7940    4.8370 C.3    404  DMS404      0.0000
      5 H          -5.2889   -2.9754    5.3299 H      404  DMS404      0.0000
      6 H          -6.7743   -3.3203    6.3110 H      404  DMS404      0.0000
      7 H          -5.1964   -2.9942    7.1365 H      404  DMS404      0.0000
      8 H          -6.6856   -1.0898    3.9361 H      404  DMS404      0.0000
      9 H          -7.5828    0.2626    4.7350 H      404  DMS404      0.0000
     10 H          -8.1548   -1.4432    4.9379 H      404  DMS404      0.0000
@<TRIPOS>BOND
     1     1     2    2
     2     1     3    1
     3     1     4    1
     4     3     5    1
     5     3     6    1
     6     3     7    1
     7     4     8    1
     8     4     9    1
     9     4    10    1

