DMS_1_A_406
  -ISIS-            3D

 10  9  0  0  0  0  0  0  0  0  1 V2000
   20.3950  -16.1500    5.2710 S   0  0  0  0  0
   20.4120  -17.6430    5.2460 O   0  0  0  0  0
   21.9550  -15.5400    5.9690 C   0  0  0  0  0
   20.5100  -15.5260    3.5700 C   0  0  0  0  0
   21.9714  -14.4318    5.9269 H   0  0  0  0  0
   22.8098  -15.9474    5.3912 H   0  0  0  0  0
   22.0355  -15.8673    7.0257 H   0  0  0  0  0
   20.5619  -14.4182    3.5847 H   0  0  0  0  0
   19.6110  -15.8428    3.0027 H   0  0  0  0  0
   21.4175  -15.9350    3.0804 H   0  0  0  0  0
  1  2  2  0  0  0
  1  3  1  0  0  0
  1  4  1  0  0  0
  3  5  1  0  0  0
  3  6  1  0  0  0
  3  7  1  0  0  0
  4  8  1  0  0  0
  4  9  1  0  0  0
  4 10  1  0  0  0
M  END
$$$$
