@<TRIPOS>MOLECULE
FUA_2_A_401
 84 87 0 0 0
SMALL
NO_CHARGES

@<TRIPOS>ATOM
      1 C1         -9.4310    1.3280  -29.4120 C.3    401  FUA401      0.0000
      2 C2         -9.5650    2.0750  -30.7390 C.3    401  FUA401      0.0000
      3 C3         -8.4770    3.1350  -30.8550 C.3    401  FUA401      0.0000
      4 C4         -7.0810    2.4980  -30.7390 C.3    401  FUA401      0.0000
      5 C5         -6.9540    1.6730  -29.4470 C.3    401  FUA401      0.0000
      6 C6         -5.5620    1.0020  -29.3460 C.3    401  FUA401      0.0000
      7 C7         -5.4760   -0.2180  -28.4260 C.3    401  FUA401      0.0000
      8 C8         -6.4890   -0.1320  -27.2800 C.3    401  FUA401      0.0000
      9 C9         -7.9280   -0.1770  -27.9590 C.3    401  FUA401      0.0000
     10 C10        -8.0660    0.6330  -29.2890 C.3    401  FUA401      0.0000
     11 C11        -9.0740   -0.0880  -26.9240 C.3    401  FUA401      0.0000
     12 C12        -8.9120   -1.2670  -25.9430 C.3    401  FUA401      0.0000
     13 C13        -7.5500   -1.2310  -25.2440 C.3    401  FUA401      0.0000
     14 C14        -6.4140   -1.3590  -26.3230 C.3    401  FUA401      0.0000
     15 C15        -5.1830   -1.4690  -25.4450 C.3    401  FUA401      0.0000
     16 C16        -5.6300   -2.3670  -24.2760 C.3    401  FUA401      0.0000
     17 C17        -7.1520   -2.2750  -24.2330 C.2    401  FUA401      0.0000
     18 C18        -6.0320    3.6040  -30.7380 C.3    401  FUA401      0.0000
     19 C19        -7.9590   -0.4120  -30.4270 C.3    401  FUA401      0.0000
     20 C20        -6.1370    1.1620  -26.4560 C.3    401  FUA401      0.0000
     21 C21        -6.5170   -2.7070  -27.0740 C.3    401  FUA401      0.0000
     22 C22        -7.8510   -2.7180  -23.1970 C.2    401  FUA401      0.0000
     23 C23        -9.3340   -2.7630  -23.1500 C.3    401  FUA401      0.0000
     24 C24        -9.8910   -1.6280  -22.3320 C.3    401  FUA401      0.0000
     25 C25       -11.3820   -1.7730  -22.3360 C.2    401  FUA401      0.0000
     26 C26       -12.1880   -0.9860  -23.0550 C.2    401  FUA401      0.0000
     27 C27       -13.6510   -1.2490  -22.9970 C.3    401  FUA401      0.0000
     28 C28       -11.6820    0.1450  -23.9000 C.3    401  FUA401      0.0000
     29 C29        -7.1780   -3.6810  -22.2560 C.2    401  FUA401      0.0000
     30 C31        -3.9820   -4.0940  -24.3050 C.2    401  FUA401      0.0000
     31 C32        -3.7660   -5.4900  -23.8780 C.3    401  FUA401      0.0000
     32 O1         -9.0850    1.1120  -26.2220 O.3    401  FUA401      0.0000
     33 O2         -5.2600   -3.7300  -24.5110 O.3    401  FUA401      0.0000
     34 O3         -3.0510   -3.3130  -24.4680 O.2    401  FUA401      0.0000
     35 O4         -6.4870   -3.1430  -21.3350 O.co2  401  FUA401     -0.5000
     36 O5         -7.3080   -4.8950  -22.4290 O.co2  401  FUA401     -0.5000
     37 O6         -8.6330    4.0620  -29.8250 O.3    401  FUA401      0.0000
     38 H         -10.2460    0.5690  -29.3743 H      401  FUA401      0.0000
     39 H          -9.6140    2.0136  -28.5572 H      401  FUA401      0.0000
     40 H         -10.5642    2.5659  -30.7839 H      401  FUA401      0.0000
     41 H          -9.5350    1.3830  -31.6071 H      401  FUA401      0.0000
     42 H          -8.5739    3.6573  -31.8329 H      401  FUA401      0.0000
     43 H          -6.9041    1.8546  -31.6311 H      401  FUA401      0.0000
     44 H          -7.0512    2.3880  -28.6050 H      401  FUA401      0.0000
     45 H          -4.8245    1.7617  -28.9959 H      401  FUA401      0.0000
     46 H          -5.2134    0.6962  -30.3597 H      401  FUA401      0.0000
     47 H          -4.4413   -0.2950  -28.0197 H      401  FUA401      0.0000
     48 H          -5.6206   -1.1485  -29.0134 H      401  FUA401      0.0000
     49 H          -8.0421   -1.2188  -28.3235 H      401  FUA401      0.0000
     50 H         -10.0504   -0.2304  -27.4398 H      401  FUA401      0.0000
     51 H          -9.0744   -2.2379  -26.4588 H      401  FUA401      0.0000
     52 H          -9.7234   -1.1770  -25.1965 H      401  FUA401      0.0000
     53 H          -7.4746   -0.2667  -24.6946 H      401  FUA401      0.0000
     54 H          -4.8899   -0.4831  -25.0276 H      401  FUA401      0.0000
     55 H          -4.3002   -1.8552  -25.9945 H      401  FUA401      0.0000
     56 H          -5.1897   -2.0035  -23.3227 H      401  FUA401      0.0000
     57 H          -4.9991    3.2029  -30.8333 H      401  FUA401      0.0000
     58 H          -6.0552    4.2253  -29.8154 H      401  FUA401      0.0000
     59 H          -6.1705    4.2967  -31.5983 H      401  FUA401      0.0000
     60 H          -7.0509   -1.0454  -30.3843 H      401  FUA401      0.0000
     61 H          -7.9501    0.0321  -31.4427 H      401  FUA401      0.0000
     62 H          -8.8216   -1.1164  -30.4186 H      401  FUA401      0.0000
     63 H          -6.6333    1.2264  -25.4691 H      401  FUA401      0.0000
     64 H          -6.4069    2.1089  -26.9546 H      401  FUA401      0.0000
     65 H          -5.0457    1.2409  -26.2570 H      401  FUA401      0.0000
     66 H          -6.6596   -3.5727  -26.3946 H      401  FUA401      0.0000
     67 H          -5.5920   -2.9299  -27.6503 H      401  FUA401      0.0000
     68 H          -7.3485   -2.7956  -27.7977 H      401  FUA401      0.0000
     69 H          -9.6490   -3.7258  -22.6846 H      401  FUA401      0.0000
     70 H          -9.7745   -2.8031  -24.1649 H      401  FUA401      0.0000
     71 H          -9.5224   -0.6551  -22.7105 H      401  FUA401      0.0000
     72 H          -9.5265   -1.6966  -21.2811 H      401  FUA401      0.0000
     73 H         -11.8007   -2.5885  -21.7209 H      401  FUA401      0.0000
     74 H         -14.0557   -1.4593  -24.0118 H      401  FUA401      0.0000
     75 H         -14.1980   -0.3665  -22.5973 H      401  FUA401      0.0000
     76 H         -13.9178   -2.1163  -22.3542 H      401  FUA401      0.0000
     77 H         -12.2530    1.0730  -23.6746 H      401  FUA401      0.0000
     78 H         -11.8453   -0.0740  -24.9783 H      401  FUA401      0.0000
     79 H         -10.6170    0.4122  -23.7719 H      401  FUA401      0.0000
     80 H          -2.6853   -5.7285  -23.7813 H      401  FUA401      0.0000
     81 H          -4.2083   -6.2005  -24.6089 H      401  FUA401      0.0000
     82 H          -4.2451   -5.6787  -22.8934 H      401  FUA401      0.0000
     83 H          -9.9793    1.3425  -26.0104 H      401  FUA401      0.0000
     84 H          -8.5309    3.6732  -28.9709 H      401  FUA401      0.0000
@<TRIPOS>BOND
     1     1     2    1
     2     1    10    1
     3     1    38    1
     4     1    39    1
     5     2     3    1
     6     2    40    1
     7     2    41    1
     8     3     4    1
     9     3    37    1
    10     3    42    1
    11     4     5    1
    12     4    18    1
    13     4    43    1
    14     5     6    1
    15     5    10    1
    16     5    44    1
    17     6     7    1
    18     6    45    1
    19     6    46    1
    20     7     8    1
    21     7    47    1
    22     7    48    1
    23     8     9    1
    24     8    14    1
    25     8    20    1
    26     9    10    1
    27     9    11    1
    28     9    49    1
    29    10    19    1
    30    11    12    1
    31    11    32    1
    32    11    50    1
    33    12    13    1
    34    12    51    1
    35    12    52    1
    36    13    14    1
    37    13    17    1
    38    13    53    1
    39    14    15    1
    40    14    21    1
    41    15    16    1
    42    15    54    1
    43    15    55    1
    44    16    17    1
    45    16    33    1
    46    16    56    1
    47    17    22    2
    48    18    57    1
    49    18    58    1
    50    18    59    1
    51    19    60    1
    52    19    61    1
    53    19    62    1
    54    20    63    1
    55    20    64    1
    56    20    65    1
    57    21    66    1
    58    21    67    1
    59    21    68    1
    60    22    23    1
    61    22    29    1
    62    23    24    1
    63    23    69    1
    64    23    70    1
    65    24    25    1
    66    24    71    1
    67    24    72    1
    68    25    26    2
    69    25    73    1
    70    26    27    1
    71    26    28    1
    72    27    74    1
    73    27    75    1
    74    27    76    1
    75    28    77    1
    76    28    78    1
    77    28    79    1
    78    29    35   ar
    79    29    36   ar
    80    30    31    1
    81    30    33    1
    82    30    34    2
    83    31    80    1
    84    31    81    1
    85    31    82    1
    86    32    83    1
    87    37    84    1

