@<TRIPOS>MOLECULE
IMD_1_A_408
 9 9 0 0 0
SMALL
NO_CHARGES

@<TRIPOS>ATOM
      1 N1          8.2820  -21.3800   -1.8900 N.ar   408  IMD408      0.0000
      2 C2          7.9930  -22.4740   -1.1490 C.ar   408  IMD408      0.0000
      3 N3          6.6490  -22.5720   -1.0270 N.ar   408  IMD408      0.0000
      4 C4          6.0900  -21.5380   -1.6910 C.ar   408  IMD408      0.0000
      5 C5          7.1210  -20.7850   -2.2360 C.ar   408  IMD408      0.0000
      6 H           9.2242  -21.0589   -2.1442 H      408  IMD408      0.0000
      7 H           8.6547  -23.2157   -0.6836 H      408  IMD408      0.0000
      8 H           5.0002  -21.4241   -1.7203 H      408  IMD408      0.0000
      9 H           7.0254  -19.8709   -2.8402 H      408  IMD408      0.0000
@<TRIPOS>BOND
     1     1     2   ar
     2     1     5   ar
     3     1     6    1
     4     2     3   ar
     5     2     7    1
     6     3     4   ar
     7     4     5   ar
     8     4     8    1
     9     5     9    1

