@<TRIPOS>MOLECULE
IMD_2_A_407
 9 9 0 0 0
SMALL
NO_CHARGES

@<TRIPOS>ATOM
      1 N1         -8.2580   -5.8170  -24.6520 N.ar   407  IMD407      0.0000
      2 C2         -9.5120   -6.3180  -24.5800 C.ar   407  IMD407      0.0000
      3 N3         -9.9130   -6.6720  -25.8240 N.ar   407  IMD407      0.0000
      4 C4         -8.9100   -6.3910  -26.6840 C.ar   407  IMD407      0.0000
      5 C5         -7.8660   -5.8520  -25.9430 C.ar   407  IMD407      0.0000
      6 H          -7.7025   -5.4702  -23.8603 H      407  IMD407      0.0000
      7 H         -10.1749   -6.4580  -23.7166 H      407  IMD407      0.0000
      8 H          -9.0234   -6.5992  -27.7542 H      407  IMD407      0.0000
      9 H          -6.8921   -5.5116  -26.3244 H      407  IMD407      0.0000
@<TRIPOS>BOND
     1     1     2   ar
     2     1     5   ar
     3     1     6    1
     4     2     3   ar
     5     2     7    1
     6     3     4   ar
     7     4     5   ar
     8     4     8    1
     9     5     9    1

