IMD_2_A_407
  -ISIS-            3D

  9  9  0  0  0  0  0  0  0  0  1 V2000
   -8.2580   -5.8170  -24.6520 N   0  0  0  0  0
   -9.5120   -6.3180  -24.5800 C   0  0  0  0  0
   -9.9130   -6.6720  -25.8240 N   0  0  0  0  0
   -8.9100   -6.3910  -26.6840 C   0  0  0  0  0
   -7.8660   -5.8520  -25.9430 C   0  0  0  0  0
   -7.7025   -5.4702  -23.8603 H   0  0  0  0  0
  -10.1749   -6.4580  -23.7166 H   0  0  0  0  0
   -9.0234   -6.5992  -27.7542 H   0  0  0  0  0
   -6.8921   -5.5116  -26.3244 H   0  0  0  0  0
  1  2  2  0  0  0
  1  5  1  0  0  0
  1  6  1  0  0  0
  2  3  1  0  0  0
  2  7  1  0  0  0
  3  4  1  0  0  0
  4  5  1  0  0  0
  4  8  1  0  0  0
  5  9  1  0  0  0
M  END
$$$$
