DMS_2_A_1003
  -ISIS-            3D

 10  9  0  0  0  0  0  0  0  0  1 V2000
   -6.2230   -0.9980    6.2800 S   0  0  0  0  0
   -7.1200   -0.6830    7.3990 O   0  0  0  0  0
   -7.2880   -0.9150    4.8480 C   0  0  0  0  0
   -5.9640   -2.7400    6.3350 C   0  0  0  0  0
   -6.7425   -1.2821    3.9548 H   0  0  0  0  0
   -7.5907    0.1382    4.6761 H   0  0  0  0  0
   -8.1958   -1.5330    5.0056 H   0  0  0  0  0
   -5.4338   -3.0702    5.4185 H   0  0  0  0  0
   -6.9334   -3.2740    6.4113 H   0  0  0  0  0
   -5.3422   -2.9922    7.2182 H   0  0  0  0  0
  1  2  2  0  0  0
  1  3  1  0  0  0
  1  4  1  0  0  0
  3  5  1  0  0  0
  3  6  1  0  0  0
  3  7  1  0  0  0
  4  8  1  0  0  0
  4  9  1  0  0  0
  4 10  1  0  0  0
M  END
$$$$
