DMS_2_A_1005
  -ISIS-            3D

 10  9  0  0  0  0  0  0  0  0  1 V2000
  -21.2380   14.6180   -8.0710 S   0  0  0  0  0
  -22.7010   14.5500   -7.9040 O   0  0  0  0  0
  -20.8440   13.1800   -9.0110 C   0  0  0  0  0
  -20.5930   13.9950   -6.5520 C   0  0  0  0  0
  -19.7449   13.0321   -9.0368 H   0  0  0  0  0
  -21.2058   13.3130  -10.0512 H   0  0  0  0  0
  -21.3274   12.2800   -8.5783 H   0  0  0  0  0
  -19.5004   13.8268   -6.6437 H   0  0  0  0  0
  -21.0908   13.0440   -6.2718 H   0  0  0  0  0
  -20.7687   14.7391   -5.7482 H   0  0  0  0  0
  1  2  2  0  0  0
  1  3  1  0  0  0
  1  4  1  0  0  0
  3  5  1  0  0  0
  3  6  1  0  0  0
  3  7  1  0  0  0
  4  8  1  0  0  0
  4  9  1  0  0  0
  4 10  1  0  0  0
M  END
$$$$
