@<TRIPOS>MOLECULE
DMS_1_A_402
 10 9 0 0 0
SMALL
NO_CHARGES

@<TRIPOS>ATOM
      1 S           2.2200  -18.9930    8.3170 S.o    402  DMS402      0.0000
      2 O           3.5240  -18.6530    8.9660 O.2    402  DMS402      0.0000
      3 C1          1.9740  -20.7860    8.4540 C.3    402  DMS402      0.0000
      4 C2          0.8670  -18.3790    9.3630 C.3    402  DMS402      0.0000
      5 H           0.9764  -21.0547    8.0505 H      402  DMS402      0.0000
      6 H           2.0408  -21.0947    9.5174 H      402  DMS402      0.0000
      7 H           2.7581  -21.3086    7.8689 H      402  DMS402      0.0000
      8 H          -0.1053  -18.7002    8.9367 H      402  DMS402      0.0000
      9 H           0.9043  -17.2709    9.3957 H      402  DMS402      0.0000
     10 H           0.9743  -18.7817   10.3910 H      402  DMS402      0.0000
@<TRIPOS>BOND
     1     1     2    2
     2     1     3    1
     3     1     4    1
     4     3     5    1
     5     3     6    1
     6     3     7    1
     7     4     8    1
     8     4     9    1
     9     4    10    1

