@<TRIPOS>MOLECULE
DMS_1_A_405
 10 9 0 0 0
SMALL
NO_CHARGES

@<TRIPOS>ATOM
      1 S           6.1670    0.1610   18.3490 S.o    405  DMS405      0.0000
      2 O           7.3600    0.6850   17.6180 O.2    405  DMS405      0.0000
      3 C1          6.6100   -0.1550   20.0830 C.3    405  DMS405      0.0000
      4 C2          4.9640    1.5030   18.5760 C.3    405  DMS405      0.0000
      5 H           5.7085   -0.4767   20.6434 H      405  DMS405      0.0000
      6 H           7.0237    0.7674   20.5397 H      405  DMS405      0.0000
      7 H           7.3725   -0.9595   20.1242 H      405  DMS405      0.0000
      8 H           4.1080    1.1359   19.1783 H      405  DMS405      0.0000
      9 H           4.5966    1.8358   17.5837 H      405  DMS405      0.0000
     10 H           5.4461    2.3568   19.0948 H      405  DMS405      0.0000
@<TRIPOS>BOND
     1     1     2    2
     2     1     3    1
     3     1     4    1
     4     3     5    1
     5     3     6    1
     6     3     7    1
     7     4     8    1
     8     4     9    1
     9     4    10    1

