@<TRIPOS>MOLECULE
DMS_1_A_406
 10 9 0 0 0
SMALL
NO_CHARGES

@<TRIPOS>ATOM
      1 S          20.3950  -16.1500    5.2710 S.o    406  DMS406      0.0000
      2 O          20.4120  -17.6430    5.2460 O.2    406  DMS406      0.0000
      3 C1         21.9550  -15.5400    5.9690 C.3    406  DMS406      0.0000
      4 C2         20.5100  -15.5260    3.5700 C.3    406  DMS406      0.0000
      5 H          21.9714  -14.4318    5.9269 H      406  DMS406      0.0000
      6 H          22.8098  -15.9474    5.3912 H      406  DMS406      0.0000
      7 H          22.0355  -15.8673    7.0257 H      406  DMS406      0.0000
      8 H          20.5619  -14.4182    3.5847 H      406  DMS406      0.0000
      9 H          19.6110  -15.8428    3.0027 H      406  DMS406      0.0000
     10 H          21.4175  -15.9350    3.0804 H      406  DMS406      0.0000
@<TRIPOS>BOND
     1     1     2    2
     2     1     3    1
     3     1     4    1
     4     3     5    1
     5     3     6    1
     6     3     7    1
     7     4     8    1
     8     4     9    1
     9     4    10    1

