@<TRIPOS>MOLECULE
DMS_1_A_403
 10 9 0 0 0
SMALL
NO_CHARGES

@<TRIPOS>ATOM
      1 S          17.0150   25.1290  -22.1980 S.o    403  DMS403      0.0000
      2 O          17.8120   26.0960  -21.3810 O.2    403  DMS403      0.0000
      3 C1         15.7990   24.3490  -21.1010 C.3    403  DMS403      0.0000
      4 C2         15.9090   26.0520  -23.2950 C.3    403  DMS403      0.0000
      5 H          15.1366   23.6856  -21.6937 H      403  DMS403      0.0000
      6 H          15.1911   25.1283  -20.5972 H      403  DMS403      0.0000
      7 H          16.3300   23.7458  -20.3364 H      403  DMS403      0.0000
      8 H          15.2477   25.3447  -23.8360 H      403  DMS403      0.0000
      9 H          16.5142   26.6208  -24.0301 H      403  DMS403      0.0000
     10 H          15.2927   26.7583  -22.7019 H      403  DMS403      0.0000
@<TRIPOS>BOND
     1     1     2    2
     2     1     3    1
     3     1     4    1
     4     3     5    1
     5     3     6    1
     6     3     7    1
     7     4     8    1
     8     4     9    1
     9     4    10    1

