FUA_2_A_401
  -ISIS-            3D

 84 87  0  0  0  0  0  0  0  0  1 V2000
   -9.4310    1.3280  -29.4120 C   0  0  0  0  0
   -9.5650    2.0750  -30.7390 C   0  0  0  0  0
   -8.4770    3.1350  -30.8550 C   0  0  0  0  0
   -7.0810    2.4980  -30.7390 C   0  0  0  0  0
   -6.9540    1.6730  -29.4470 C   0  0  0  0  0
   -5.5620    1.0020  -29.3460 C   0  0  0  0  0
   -5.4760   -0.2180  -28.4260 C   0  0  0  0  0
   -6.4890   -0.1320  -27.2800 C   0  0  0  0  0
   -7.9280   -0.1770  -27.9590 C   0  0  0  0  0
   -8.0660    0.6330  -29.2890 C   0  0  0  0  0
   -9.0740   -0.0880  -26.9240 C   0  0  0  0  0
   -8.9120   -1.2670  -25.9430 C   0  0  0  0  0
   -7.5500   -1.2310  -25.2440 C   0  0  0  0  0
   -6.4140   -1.3590  -26.3230 C   0  0  0  0  0
   -5.1830   -1.4690  -25.4450 C   0  0  0  0  0
   -5.6300   -2.3670  -24.2760 C   0  0  0  0  0
   -7.1520   -2.2750  -24.2330 C   0  0  0  0  0
   -6.0320    3.6040  -30.7380 C   0  0  0  0  0
   -7.9590   -0.4120  -30.4270 C   0  0  0  0  0
   -6.1370    1.1620  -26.4560 C   0  0  0  0  0
   -6.5170   -2.7070  -27.0740 C   0  0  0  0  0
   -7.8510   -2.7180  -23.1970 C   0  0  0  0  0
   -9.3340   -2.7630  -23.1500 C   0  0  0  0  0
   -9.8910   -1.6280  -22.3320 C   0  0  0  0  0
  -11.3820   -1.7730  -22.3360 C   0  0  0  0  0
  -12.1880   -0.9860  -23.0550 C   0  0  0  0  0
  -13.6510   -1.2490  -22.9970 C   0  0  0  0  0
  -11.6820    0.1450  -23.9000 C   0  0  0  0  0
   -7.1780   -3.6810  -22.2560 C   0  0  0  0  0
   -3.9820   -4.0940  -24.3050 C   0  0  0  0  0
   -3.7660   -5.4900  -23.8780 C   0  0  0  0  0
   -9.0850    1.1120  -26.2220 O   0  0  0  0  0
   -5.2600   -3.7300  -24.5110 O   0  0  0  0  0
   -3.0510   -3.3130  -24.4680 O   0  0  0  0  0
   -6.4870   -3.1430  -21.3350 O   0  0  0  0  0
   -7.3080   -4.8950  -22.4290 O   0  0  0  0  0
   -8.6330    4.0620  -29.8250 O   0  0  0  0  0
  -10.2460    0.5690  -29.3743 H   0  0  0  0  0
   -9.6140    2.0136  -28.5572 H   0  0  0  0  0
  -10.5642    2.5659  -30.7839 H   0  0  0  0  0
   -9.5350    1.3830  -31.6071 H   0  0  0  0  0
   -8.5739    3.6573  -31.8329 H   0  0  0  0  0
   -6.9041    1.8546  -31.6311 H   0  0  0  0  0
   -7.0512    2.3880  -28.6050 H   0  0  0  0  0
   -4.8245    1.7617  -28.9959 H   0  0  0  0  0
   -5.2134    0.6962  -30.3597 H   0  0  0  0  0
   -4.4413   -0.2950  -28.0197 H   0  0  0  0  0
   -5.6206   -1.1485  -29.0134 H   0  0  0  0  0
   -8.0421   -1.2188  -28.3235 H   0  0  0  0  0
  -10.0504   -0.2304  -27.4398 H   0  0  0  0  0
   -9.0744   -2.2379  -26.4588 H   0  0  0  0  0
   -9.7234   -1.1770  -25.1965 H   0  0  0  0  0
   -7.4746   -0.2667  -24.6946 H   0  0  0  0  0
   -4.8899   -0.4831  -25.0276 H   0  0  0  0  0
   -4.3002   -1.8552  -25.9945 H   0  0  0  0  0
   -5.1897   -2.0035  -23.3227 H   0  0  0  0  0
   -4.9991    3.2029  -30.8333 H   0  0  0  0  0
   -6.0552    4.2253  -29.8154 H   0  0  0  0  0
   -6.1705    4.2967  -31.5983 H   0  0  0  0  0
   -7.0509   -1.0454  -30.3843 H   0  0  0  0  0
   -7.9501    0.0321  -31.4427 H   0  0  0  0  0
   -8.8216   -1.1164  -30.4186 H   0  0  0  0  0
   -6.6333    1.2264  -25.4691 H   0  0  0  0  0
   -6.4069    2.1089  -26.9546 H   0  0  0  0  0
   -5.0457    1.2409  -26.2570 H   0  0  0  0  0
   -6.6596   -3.5727  -26.3946 H   0  0  0  0  0
   -5.5920   -2.9299  -27.6503 H   0  0  0  0  0
   -7.3485   -2.7956  -27.7977 H   0  0  0  0  0
   -9.6490   -3.7258  -22.6846 H   0  0  0  0  0
   -9.7745   -2.8031  -24.1649 H   0  0  0  0  0
   -9.5224   -0.6551  -22.7105 H   0  0  0  0  0
   -9.5265   -1.6966  -21.2811 H   0  0  0  0  0
  -11.8007   -2.5885  -21.7209 H   0  0  0  0  0
  -14.0557   -1.4593  -24.0118 H   0  0  0  0  0
  -14.1980   -0.3665  -22.5973 H   0  0  0  0  0
  -13.9178   -2.1163  -22.3542 H   0  0  0  0  0
  -12.2530    1.0730  -23.6746 H   0  0  0  0  0
  -11.8453   -0.0740  -24.9783 H   0  0  0  0  0
  -10.6170    0.4122  -23.7719 H   0  0  0  0  0
   -2.6853   -5.7285  -23.7813 H   0  0  0  0  0
   -4.2083   -6.2005  -24.6089 H   0  0  0  0  0
   -4.2451   -5.6787  -22.8934 H   0  0  0  0  0
   -9.9793    1.3425  -26.0104 H   0  0  0  0  0
   -8.5309    3.6732  -28.9709 H   0  0  0  0  0
  1  2  1  0  0  0
  1 10  1  0  0  0
  1 38  1  0  0  0
  1 39  1  0  0  0
  2  3  1  0  0  0
  2 40  1  0  0  0
  2 41  1  0  0  0
  3  4  1  0  0  0
  3 37  1  0  0  0
  3 42  1  0  0  0
  4  5  1  0  0  0
  4 18  1  0  0  0
  4 43  1  0  0  0
  5  6  1  0  0  0
  5 10  1  0  0  0
  5 44  1  0  0  0
  6  7  1  0  0  0
  6 45  1  0  0  0
  6 46  1  0  0  0
  7  8  1  0  0  0
  7 47  1  0  0  0
  7 48  1  0  0  0
  8  9  1  0  0  0
  8 14  1  0  0  0
  8 20  1  0  0  0
  9 10  1  0  0  0
  9 11  1  0  0  0
  9 49  1  0  0  0
 10 19  1  0  0  0
 11 12  1  0  0  0
 11 32  1  0  0  0
 11 50  1  0  0  0
 12 13  1  0  0  0
 12 51  1  0  0  0
 12 52  1  0  0  0
 13 14  1  0  0  0
 13 17  1  0  0  0
 13 53  1  0  0  0
 14 15  1  0  0  0
 14 21  1  0  0  0
 15 16  1  0  0  0
 15 54  1  0  0  0
 15 55  1  0  0  0
 16 17  1  0  0  0
 16 33  1  0  0  0
 16 56  1  0  0  0
 17 22  2  0  0  0
 18 57  1  0  0  0
 18 58  1  0  0  0
 18 59  1  0  0  0
 19 60  1  0  0  0
 19 61  1  0  0  0
 19 62  1  0  0  0
 20 63  1  0  0  0
 20 64  1  0  0  0
 20 65  1  0  0  0
 21 66  1  0  0  0
 21 67  1  0  0  0
 21 68  1  0  0  0
 22 23  1  0  0  0
 22 29  1  0  0  0
 23 24  1  0  0  0
 23 69  1  0  0  0
 23 70  1  0  0  0
 24 25  1  0  0  0
 24 71  1  0  0  0
 24 72  1  0  0  0
 25 26  2  0  0  0
 25 73  1  0  0  0
 26 27  1  0  0  0
 26 28  1  0  0  0
 27 74  1  0  0  0
 27 75  1  0  0  0
 27 76  1  0  0  0
 28 77  1  0  0  0
 28 78  1  0  0  0
 28 79  1  0  0  0
 29 35  2  0  0  0
 29 36  2  0  0  0
 30 31  1  0  0  0
 30 33  1  0  0  0
 30 34  2  0  0  0
 31 80  1  0  0  0
 31 81  1  0  0  0
 31 82  1  0  0  0
 32 83  1  0  0  0
 37 84  1  0  0  0
M  END
$$$$
