@<TRIPOS>MOLECULE
OHB_1_A_201
 17 17 0 0 0
SMALL
NO_CHARGES

@<TRIPOS>ATOM
      1 O         -48.7680  -29.0570    3.3940 O.2    201  OHB201      0.0000
      2 C         -48.5200  -29.0480    4.5380 C.2    201  OHB201      0.0000
      3 N         -47.1690  -29.0140    4.9780 N.3    201  OHB201      0.0000
      4 C1        -49.6300  -29.1220    5.5890 C.ar   201  OHB201      0.0000
      5 C6        -50.8930  -29.3370    5.1500 C.ar   201  OHB201      0.0000
      6 O1        -51.0410  -29.4320    3.8120 O.3    201  OHB201      0.0000
      7 C5        -51.9820  -29.4560    5.9640 C.ar   201  OHB201      0.0000
      8 C4        -51.8210  -29.3530    7.3090 C.ar   201  OHB201      0.0000
      9 C3        -50.5660  -29.1310    7.7760 C.ar   201  OHB201      0.0000
     10 C2        -49.4500  -29.0330    6.9500 C.ar   201  OHB201      0.0000
     11 H         -46.4339  -28.9736    4.2604 H      201  OHB201      0.0000
     12 H         -46.9472  -29.0313    5.9803 H      201  OHB201      0.0000
     13 H         -51.9274  -29.5761    3.5119 H      201  OHB201      0.0000
     14 H         -52.9890  -29.6327    5.5492 H      201  OHB201      0.0000
     15 H         -52.6797  -29.4418    7.9954 H      201  OHB201      0.0000
     16 H         -50.4194  -29.0351    8.8666 H      201  OHB201      0.0000
     17 H         -48.4578  -28.8748    7.3998 H      201  OHB201      0.0000
@<TRIPOS>BOND
     1     1     2    2
     2     2     3    1
     3     2     4    1
     4     3    11    1
     5     3    12    1
     6     4     5   ar
     7     4    10   ar
     8     5     6    1
     9     5     7   ar
    10     6    13    1
    11     7     8   ar
    12     7    14    1
    13     8     9   ar
    14     8    15    1
    15     9    10   ar
    16     9    16    1
    17    10    17    1

