@<TRIPOS>MOLECULE
EDO_1_A_202
 10 9 0 0 0
SMALL
NO_CHARGES

@<TRIPOS>ATOM
      1 C1        -15.4770    5.6800    3.5840 C.3    202  EDO202      0.0000
      2 O1        -15.4210    4.2950    3.7780 O.3    202  EDO202      0.0000
      3 C2        -14.2440    6.3080    3.9330 C.3    202  EDO202      0.0000
      4 O2        -14.0620    6.2540    5.2960 O.3    202  EDO202      0.0000
      5 H         -16.3162    6.1074    4.1748 H      202  EDO202      0.0000
      6 H         -15.7157    5.8755    2.5160 H      202  EDO202      0.0000
      7 H         -16.2954    3.9387    3.6898 H      202  EDO202      0.0000
      8 H         -14.2456    7.3723    3.6122 H      202  EDO202      0.0000
      9 H         -13.3909    5.8192    3.4148 H      202  EDO202      0.0000
     10 H         -13.1858    6.5519    5.5032 H      202  EDO202      0.0000
@<TRIPOS>BOND
     1     1     2    1
     2     1     3    1
     3     1     5    1
     4     1     6    1
     5     2     7    1
     6     3     4    1
     7     3     8    1
     8     3     9    1
     9     4    10    1

