EDO_1_A_209
  -ISIS-            3D

 10  9  0  0  0  0  0  0  0  0  1 V2000
    0.3830   31.8570  -19.0680 C   0  0  0  0  0
   -0.8570   31.5650  -19.6560 O   0  0  0  0  0
    0.2380   32.9410  -18.0900 C   0  0  0  0  0
   -0.8200   32.6990  -17.1400 O   0  0  0  0  0
    1.1074   32.1298  -19.8630 H   0  0  0  0  0
    0.7740   30.9398  -18.5788 H   0  0  0  0  0
   -1.5104   31.6102  -18.9666 H   0  0  0  0  0
    0.0085   33.8916  -18.6168 H   0  0  0  0  0
    1.1939   33.1132  -17.5504 H   0  0  0  0  0
   -0.4487   32.2707  -16.3800 H   0  0  0  0  0
  1  2  1  0  0  0
  1  3  1  0  0  0
  1  5  1  0  0  0
  1  6  1  0  0  0
  2  7  1  0  0  0
  3  4  1  0  0  0
  3  8  1  0  0  0
  3  9  1  0  0  0
  4 10  1  0  0  0
M  END
$$$$
