@<TRIPOS>MOLECULE
EDO_1_A_207
 10 9 0 0 0
SMALL
NO_CHARGES

@<TRIPOS>ATOM
      1 C1        -24.0130   29.2800   -4.1410 C.3    207  EDO207      0.0000
      2 O1        -22.9510   29.7350   -4.9640 O.3    207  EDO207      0.0000
      3 C2        -23.5820   29.1280   -2.7470 C.3    207  EDO207      0.0000
      4 O2        -23.5220   30.2950   -1.9990 O.3    207  EDO207      0.0000
      5 H         -24.3469   28.2980   -4.5388 H      207  EDO207      0.0000
      6 H         -24.8884   29.9593   -4.2193 H      207  EDO207      0.0000
      7 H         -23.0985   30.6491   -5.1678 H      207  EDO207      0.0000
      8 H         -22.6030   28.6046   -2.6975 H      207  EDO207      0.0000
      9 H         -24.2977   28.4528   -2.2301 H      207  EDO207      0.0000
     10 H         -22.7862   30.8037   -2.3151 H      207  EDO207      0.0000
@<TRIPOS>BOND
     1     1     2    1
     2     1     3    1
     3     1     5    1
     4     1     6    1
     5     2     7    1
     6     3     4    1
     7     3     8    1
     8     3     9    1
     9     4    10    1

