@<TRIPOS>MOLECULE
EDO_1_A_204
 10 9 0 0 0
SMALL
NO_CHARGES

@<TRIPOS>ATOM
      1 C1         -6.3040   23.0460   10.7950 C.3    204  EDO204      0.0000
      2 O1         -6.4970   21.9520    9.9100 O.3    204  EDO204      0.0000
      3 C2         -6.4150   24.3530   10.1220 C.3    204  EDO204      0.0000
      4 O2         -7.4930   25.1240   10.6020 O.3    204  EDO204      0.0000
      5 H          -5.2995   22.9488   11.2608 H      204  EDO204      0.0000
      6 H          -7.0348   22.9697   11.6280 H      204  EDO204      0.0000
      7 H          -6.3888   21.1467   10.3986 H      204  EDO204      0.0000
      8 H          -6.5076   24.2314    9.0220 H      204  EDO204      0.0000
      9 H          -5.4845   24.9379   10.2804 H      204  EDO204      0.0000
     10 H          -8.2950   24.7631   10.2465 H      204  EDO204      0.0000
@<TRIPOS>BOND
     1     1     2    1
     2     1     3    1
     3     1     5    1
     4     1     6    1
     5     2     7    1
     6     3     4    1
     7     3     8    1
     8     3     9    1
     9     4    10    1

