EDO_1_A_208
  -ISIS-            3D

 10  9  0  0  0  0  0  0  0  0  1 V2000
   -9.5790   35.3410    3.2470 C   0  0  0  0  0
   -9.7760   36.4910    2.4120 O   0  0  0  0  0
   -8.2060   34.7720    3.2270 C   0  0  0  0  0
   -7.2320   35.7560    3.0180 O   0  0  0  0  0
  -10.3246   34.5670    2.9699 H   0  0  0  0  0
   -9.8294   35.6423    4.2871 H   0  0  0  0  0
   -8.9392   36.9416    2.3838 H   0  0  0  0  0
   -8.1315   34.0273    2.4050 H   0  0  0  0  0
   -7.9966   34.2249    4.1708 H   0  0  0  0  0
   -6.3793   35.3421    3.0070 H   0  0  0  0  0
  1  2  1  0  0  0
  1  3  1  0  0  0
  1  5  1  0  0  0
  1  6  1  0  0  0
  2  7  1  0  0  0
  3  4  1  0  0  0
  3  8  1  0  0  0
  3  9  1  0  0  0
  4 10  1  0  0  0
M  END
$$$$
