EDO_1_A_202
  -ISIS-            3D

 10  9  0  0  0  0  0  0  0  0  1 V2000
  -15.4770    5.6800    3.5840 C   0  0  0  0  0
  -15.4210    4.2950    3.7780 O   0  0  0  0  0
  -14.2440    6.3080    3.9330 C   0  0  0  0  0
  -14.0620    6.2540    5.2960 O   0  0  0  0  0
  -16.3162    6.1074    4.1748 H   0  0  0  0  0
  -15.7157    5.8755    2.5160 H   0  0  0  0  0
  -16.2954    3.9387    3.6898 H   0  0  0  0  0
  -14.2456    7.3723    3.6122 H   0  0  0  0  0
  -13.3909    5.8192    3.4148 H   0  0  0  0  0
  -13.1858    6.5519    5.5032 H   0  0  0  0  0
  1  2  1  0  0  0
  1  3  1  0  0  0
  1  5  1  0  0  0
  1  6  1  0  0  0
  2  7  1  0  0  0
  3  4  1  0  0  0
  3  8  1  0  0  0
  3  9  1  0  0  0
  4 10  1  0  0  0
M  END
$$$$
