@<TRIPOS>MOLECULE
EDO_1_A_206
 10 9 0 0 0
SMALL
NO_CHARGES

@<TRIPOS>ATOM
      1 C1        -10.7600   23.4110    8.4770 C.3    206  EDO206      0.0000
      2 O1        -11.3940   23.3950    7.2480 O.3    206  EDO206      0.0000
      3 C2        -11.3440   22.3960    9.3970 C.3    206  EDO206      0.0000
      4 O2        -12.7090   22.6390    9.6760 O.3    206  EDO206      0.0000
      5 H         -10.8354   24.4272    8.9191 H      206  EDO206      0.0000
      6 H          -9.6790   23.2132    8.3211 H      206  EDO206      0.0000
      7 H         -12.3268   23.4578    7.4180 H      206  EDO206      0.0000
      8 H         -10.7770   22.3906   10.3528 H      206  EDO206      0.0000
      9 H         -11.2359   21.3806    8.9585 H      206  EDO206      0.0000
     10 H         -13.0214   21.9629   10.2625 H      206  EDO206      0.0000
@<TRIPOS>BOND
     1     1     2    1
     2     1     3    1
     3     1     5    1
     4     1     6    1
     5     2     7    1
     6     3     4    1
     7     3     8    1
     8     3     9    1
     9     4    10    1

