@<TRIPOS>MOLECULE
EDO_1_A_205
 10 9 0 0 0
SMALL
NO_CHARGES

@<TRIPOS>ATOM
      1 C1        -11.0980   27.6950    5.6620 C.3    205  EDO205      0.0000
      2 O1        -11.5800   27.6820    7.0010 O.3    205  EDO205      0.0000
      3 C2        -12.1970   27.8380    4.6850 C.3    205  EDO205      0.0000
      4 O2        -13.4110   27.3220    5.1660 O.3    205  EDO205      0.0000
      5 H         -10.5583   26.7401    5.4850 H      205  EDO205      0.0000
      6 H         -10.3480   28.5046    5.5485 H      205  EDO205      0.0000
      7 H         -12.4257   27.2486    6.9893 H      205  EDO205      0.0000
      8 H         -11.9315   27.3466    3.7249 H      205  EDO205      0.0000
      9 H         -12.3443   28.9161    4.4565 H      205  EDO205      0.0000
     10 H         -14.0814   27.4634    4.5110 H      205  EDO205      0.0000
@<TRIPOS>BOND
     1     1     2    1
     2     1     3    1
     3     1     5    1
     4     1     6    1
     5     2     7    1
     6     3     4    1
     7     3     8    1
     8     3     9    1
     9     4    10    1

