@<TRIPOS>MOLECULE
EDO_2_A_309
 10 9 0 0 0
SMALL
NO_CHARGES

@<TRIPOS>ATOM
      1 C1         -6.8010    0.0150   25.8250 C.3    309  EDO309      0.0000
      2 O1         -6.6470    0.8240   24.6490 O.3    309  EDO309      0.0000
      3 C2         -6.8370    0.9010   27.0710 C.3    309  EDO309      0.0000
      4 O2         -8.0430    1.6770   27.2090 O.3    309  EDO309      0.0000
      5 H          -5.9425   -0.6861   25.8819 H      309  EDO309      0.0000
      6 H          -7.7214   -0.6009   25.7476 H      309  EDO309      0.0000
      7 H          -7.4636    1.2894   24.5198 H      309  EDO309      0.0000
      8 H          -5.9510    1.5712   27.0893 H      309  EDO309      0.0000
      9 H          -6.7508    0.2553   27.9704 H      309  EDO309      0.0000
     10 H          -7.8481    2.5719   26.9635 H      309  EDO309      0.0000
@<TRIPOS>BOND
     1     1     2    1
     2     1     3    1
     3     1     5    1
     4     1     6    1
     5     2     7    1
     6     3     4    1
     7     3     8    1
     8     3     9    1
     9     4    10    1

