@<TRIPOS>MOLECULE
EDO_1_A_309
 10 9 0 0 0
SMALL
NO_CHARGES

@<TRIPOS>ATOM
      1 C1         -6.8330    0.0150   25.5240 C.3    309  EDO309      0.0000
      2 O1         -6.9870    0.8240   26.7000 O.3    309  EDO309      0.0000
      3 C2         -6.7970    0.9010   24.2780 C.3    309  EDO309      0.0000
      4 O2         -5.5910    1.6770   24.1400 O.3    309  EDO309      0.0000
      5 H          -7.6847   -0.6950   25.4579 H      309  EDO309      0.0000
      6 H          -5.9024   -0.5860   25.5983 H      309  EDO309      0.0000
      7 H          -7.0134    0.2494   27.4535 H      309  EDO309      0.0000
      8 H          -7.6727    1.5840   24.2695 H      309  EDO309      0.0000
      9 H          -6.8928    0.2630   23.3744 H      309  EDO309      0.0000
     10 H          -5.4922    2.1643   24.9486 H      309  EDO309      0.0000
@<TRIPOS>BOND
     1     1     2    1
     2     1     3    1
     3     1     5    1
     4     1     6    1
     5     2     7    1
     6     3     4    1
     7     3     8    1
     8     3     9    1
     9     4    10    1

