EDO_1_A_309
  -ISIS-            3D

 10  9  0  0  0  0  0  0  0  0  1 V2000
   -6.8330    0.0150   25.5240 C   0  0  0  0  0
   -6.9870    0.8240   26.7000 O   0  0  0  0  0
   -6.7970    0.9010   24.2780 C   0  0  0  0  0
   -5.5910    1.6770   24.1400 O   0  0  0  0  0
   -7.6847   -0.6950   25.4579 H   0  0  0  0  0
   -5.9024   -0.5860   25.5983 H   0  0  0  0  0
   -7.0134    0.2494   27.4535 H   0  0  0  0  0
   -7.6727    1.5840   24.2695 H   0  0  0  0  0
   -6.8928    0.2630   23.3744 H   0  0  0  0  0
   -5.4922    2.1643   24.9486 H   0  0  0  0  0
  1  2  1  0  0  0
  1  3  1  0  0  0
  1  5  1  0  0  0
  1  6  1  0  0  0
  2  7  1  0  0  0
  3  4  1  0  0  0
  3  8  1  0  0  0
  3  9  1  0  0  0
  4 10  1  0  0  0
M  END
$$$$
