@<TRIPOS>MOLECULE
EDO_1_C_201
 10 9 0 0 0
SMALL
NO_CHARGES

@<TRIPOS>ATOM
      1 C1         -7.5030    0.5530    9.6130 C.3    201  EDO201      0.0000
      2 O1         -7.3470    1.3600   10.7640 O.3    201  EDO201      0.0000
      3 C2         -6.7850    1.0780    8.3850 C.3    201  EDO201      0.0000
      4 O2         -7.1830    0.2090    7.3070 O.3    201  EDO201      0.0000
      5 H          -8.5882    0.4405    9.4004 H      201  EDO201      0.0000
      6 H          -7.1285   -0.4644    9.8529 H      201  EDO201      0.0000
      7 H          -7.9062    2.1207   10.6771 H      201  EDO201      0.0000
      8 H          -5.6837    1.0492    8.5199 H      201  EDO201      0.0000
      9 H          -7.0878    2.1214    8.1576 H      201  EDO201      0.0000
     10 H          -6.7027    0.4637    6.5302 H      201  EDO201      0.0000
@<TRIPOS>BOND
     1     1     2    1
     2     1     3    1
     3     1     5    1
     4     1     6    1
     5     2     7    1
     6     3     4    1
     7     3     8    1
     8     3     9    1
     9     4    10    1

