EDO_1_H_302
  -ISIS-            3D

 10  9  0  0  0  0  0  0  0  0  1 V2000
   21.3370  -16.0070    2.0650 C   0  0  0  0  0
   20.8850  -16.0480    3.4200 O   0  0  0  0  0
   20.1440  -15.9750    1.1310 C   0  0  0  0  0
   20.6900  -15.7160   -0.1670 O   0  0  0  0  0
   21.9618  -16.9026    1.8672 H   0  0  0  0  0
   21.9851  -15.1167    1.9174 H   0  0  0  0  0
   20.7241  -15.1597    3.7101 H   0  0  0  0  0
   19.4366  -15.1650    1.4065 H   0  0  0  0  0
   19.5980  -16.9414    1.1386 H   0  0  0  0  0
   19.9825  -15.7480   -0.7973 H   0  0  0  0  0
  1  2  1  0  0  0
  1  3  1  0  0  0
  1  5  1  0  0  0
  1  6  1  0  0  0
  2  7  1  0  0  0
  3  4  1  0  0  0
  3  8  1  0  0  0
  3  9  1  0  0  0
  4 10  1  0  0  0
M  END
$$$$
