@<TRIPOS>MOLECULE
EDO_1_L_301
 10 9 0 0 0
SMALL
NO_CHARGES

@<TRIPOS>ATOM
      1 C1         15.4930   -0.5260    7.2230 C.3    301  EDO301      0.0000
      2 O1         14.4990   -0.9370    8.1700 O.3    301  EDO301      0.0000
      3 C2         15.0510    0.8180    6.6590 C.3    301  EDO301      0.0000
      4 O2         13.9320    0.5360    5.8040 O.3    301  EDO301      0.0000
      5 H          15.6050   -1.2832    6.4186 H      301  EDO301      0.0000
      6 H          16.4713   -0.4282    7.7387 H      301  EDO301      0.0000
      7 H          14.6311   -1.8568    8.3576 H      301  EDO301      0.0000
      8 H          15.8638    1.2830    6.0629 H      301  EDO301      0.0000
      9 H          14.7634    1.5230    7.4669 H      301  EDO301      0.0000
     10 H          13.4848    1.3525    5.6239 H      301  EDO301      0.0000
@<TRIPOS>BOND
     1     1     2    1
     2     1     3    1
     3     1     5    1
     4     1     6    1
     5     2     7    1
     6     3     4    1
     7     3     8    1
     8     3     9    1
     9     4    10    1

