@<TRIPOS>MOLECULE
EDO_1_H_301
 10 9 0 0 0
SMALL
NO_CHARGES

@<TRIPOS>ATOM
      1 C1         31.7050   12.5760   -2.7850 C.3    301  EDO301      0.0000
      2 O1         32.2720   13.7870   -2.2590 O.3    301  EDO301      0.0000
      3 C2         32.6830   11.4230   -2.6780 C.3    301  EDO301      0.0000
      4 O2         33.2850   11.1040   -3.9150 O.3    301  EDO301      0.0000
      5 H          31.3734   12.7370   -3.8318 H      301  EDO301      0.0000
      6 H          30.7910   12.3481   -2.1976 H      301  EDO301      0.0000
      7 H          32.9887   14.0399   -2.8272 H      301  EDO301      0.0000
      8 H          32.1623   10.5209   -2.2905 H      301  EDO301      0.0000
      9 H          33.4797   11.6525   -1.9408 H      301  EDO301      0.0000
     10 H          32.6741   10.5947   -4.4308 H      301  EDO301      0.0000
@<TRIPOS>BOND
     1     1     2    1
     2     1     3    1
     3     1     5    1
     4     1     6    1
     5     2     7    1
     6     3     4    1
     7     3     8    1
     8     3     9    1
     9     4    10    1

