@<TRIPOS>MOLECULE
EDO_1_H_303
 10 9 0 0 0
SMALL
NO_CHARGES

@<TRIPOS>ATOM
      1 C1         33.3220   18.6470   -0.4110 C.3    303  EDO303      0.0000
      2 O1         33.2910   17.4020    0.3370 O.3    303  EDO303      0.0000
      3 C2         33.2040   18.4960   -1.9330 C.3    303  EDO303      0.0000
      4 O2         34.4480   18.1470   -2.5860 O.3    303  EDO303      0.0000
      5 H          34.2417   19.2136   -0.1531 H      303  EDO303      0.0000
      6 H          32.4724   19.2651   -0.0505 H      303  EDO303      0.0000
      7 H          34.1571   17.0190    0.2913 H      303  EDO303      0.0000
      8 H          32.8647   19.4619   -2.3636 H      303  EDO303      0.0000
      9 H          32.4203   17.7516   -2.1877 H      303  EDO303      0.0000
     10 H          34.5244   17.2018   -2.5794 H      303  EDO303      0.0000
@<TRIPOS>BOND
     1     1     2    1
     2     1     3    1
     3     1     5    1
     4     1     6    1
     5     2     7    1
     6     3     4    1
     7     3     8    1
     8     3     9    1
     9     4    10    1

