@<TRIPOS>MOLECULE
EDO_1_L_302
 10 9 0 0 0
SMALL
NO_CHARGES

@<TRIPOS>ATOM
      1 C1         47.2790    9.8810   45.3870 C.3    302  EDO302      0.0000
      2 O1         47.9700   10.8480   44.6040 O.3    302  EDO302      0.0000
      3 C2         45.9490    9.5280   44.7110 C.3    302  EDO302      0.0000
      4 O2         44.9330   10.4940   45.0200 O.3    302  EDO302      0.0000
      5 H          47.1085   10.2829   46.4066 H      302  EDO302      0.0000
      6 H          47.9123    8.9749   45.4956 H      302  EDO302      0.0000
      7 H          48.3619   10.4152   43.8566 H      302  EDO302      0.0000
      8 H          45.6078    8.5338   45.0711 H      302  EDO302      0.0000
      9 H          46.0742    9.4465   43.6108 H      302  EDO302      0.0000
     10 H          44.1548   10.2811   44.5217 H      302  EDO302      0.0000
@<TRIPOS>BOND
     1     1     2    1
     2     1     3    1
     3     1     5    1
     4     1     6    1
     5     2     7    1
     6     3     4    1
     7     3     8    1
     8     3     9    1
     9     4    10    1

