EDO_1_L_302
  -ISIS-            3D

 10  9  0  0  0  0  0  0  0  0  1 V2000
   47.2790    9.8810   45.3870 C   0  0  0  0  0
   47.9700   10.8480   44.6040 O   0  0  0  0  0
   45.9490    9.5280   44.7110 C   0  0  0  0  0
   44.9330   10.4940   45.0200 O   0  0  0  0  0
   47.1085   10.2829   46.4066 H   0  0  0  0  0
   47.9123    8.9749   45.4956 H   0  0  0  0  0
   48.3619   10.4152   43.8566 H   0  0  0  0  0
   45.6078    8.5338   45.0711 H   0  0  0  0  0
   46.0742    9.4465   43.6108 H   0  0  0  0  0
   44.1548   10.2811   44.5217 H   0  0  0  0  0
  1  2  1  0  0  0
  1  3  1  0  0  0
  1  5  1  0  0  0
  1  6  1  0  0  0
  2  7  1  0  0  0
  3  4  1  0  0  0
  3  8  1  0  0  0
  3  9  1  0  0  0
  4 10  1  0  0  0
M  END
$$$$
