@<TRIPOS>MOLECULE
EDO_1_H_305
 10 9 0 0 0
SMALL
NO_CHARGES

@<TRIPOS>ATOM
      1 C1         30.9520   15.1250    6.6110 C.3    305  EDO305      0.0000
      2 O1         31.6930   16.3050    6.9640 O.3    305  EDO305      0.0000
      3 C2         31.9080   14.0960    5.9730 C.3    305  EDO305      0.0000
      4 O2         32.9690   14.7390    5.2360 O.3    305  EDO305      0.0000
      5 H          30.1585   15.4010    5.8843 H      305  EDO305      0.0000
      6 H          30.4552   14.6986    7.5073 H      305  EDO305      0.0000
      7 H          31.0887   16.9313    7.3392 H      305  EDO305      0.0000
      8 H          31.3553   13.4087    5.3004 H      305  EDO305      0.0000
      9 H          32.3667   13.4705    6.7679 H      305  EDO305      0.0000
     10 H          33.1717   15.5421    5.7021 H      305  EDO305      0.0000
@<TRIPOS>BOND
     1     1     2    1
     2     1     3    1
     3     1     5    1
     4     1     6    1
     5     2     7    1
     6     3     4    1
     7     3     8    1
     8     3     9    1
     9     4    10    1

