EDO_1_C_201
  -ISIS-            3D

 10  9  0  0  0  0  0  0  0  0  1 V2000
   -7.5030    0.5530    9.6130 C   0  0  0  0  0
   -7.3470    1.3600   10.7640 O   0  0  0  0  0
   -6.7850    1.0780    8.3850 C   0  0  0  0  0
   -7.1830    0.2090    7.3070 O   0  0  0  0  0
   -8.5882    0.4405    9.4004 H   0  0  0  0  0
   -7.1285   -0.4644    9.8529 H   0  0  0  0  0
   -7.9062    2.1207   10.6771 H   0  0  0  0  0
   -5.6837    1.0492    8.5199 H   0  0  0  0  0
   -7.0878    2.1214    8.1576 H   0  0  0  0  0
   -6.7027    0.4637    6.5302 H   0  0  0  0  0
  1  2  1  0  0  0
  1  3  1  0  0  0
  1  5  1  0  0  0
  1  6  1  0  0  0
  2  7  1  0  0  0
  3  4  1  0  0  0
  3  8  1  0  0  0
  3  9  1  0  0  0
  4 10  1  0  0  0
M  END
$$$$
