EDO_1_C_202
  -ISIS-            3D

 10  9  0  0  0  0  0  0  0  0  1 V2000
  -12.8080  -16.2860   -3.0180 C   0  0  0  0  0
  -12.8030  -16.3120   -1.5960 O   0  0  0  0  0
  -13.9200  -17.2030   -3.4690 C   0  0  0  0  0
  -15.0080  -17.0550   -2.5520 O   0  0  0  0  0
  -11.8229  -16.6126   -3.4080 H   0  0  0  0  0
  -12.9833  -15.2461   -3.3650 H   0  0  0  0  0
  -13.6907  -16.1506   -1.2994 H   0  0  0  0  0
  -13.5758  -18.2592   -3.4610 H   0  0  0  0  0
  -14.2468  -16.9592   -4.5012 H   0  0  0  0  0
  -15.6878  -17.6676   -2.7987 H   0  0  0  0  0
  1  2  1  0  0  0
  1  3  1  0  0  0
  1  5  1  0  0  0
  1  6  1  0  0  0
  2  7  1  0  0  0
  3  4  1  0  0  0
  3  8  1  0  0  0
  3  9  1  0  0  0
  4 10  1  0  0  0
M  END
$$$$
