@<TRIPOS>MOLECULE
DMS_1_A_401
 10 9 0 0 0
SMALL
NO_CHARGES

@<TRIPOS>ATOM
      1 S           7.0240  -28.1730   21.3670 S.o    401  DMS401      0.0000
      2 O           7.7000  -27.1990   22.2600 O.2    401  DMS401      0.0000
      3 C1          5.7790  -28.9020   22.4090 C.3    401  DMS401      0.0000
      4 C2          5.9550  -27.2530   20.3260 C.3    401  DMS401      0.0000
      5 H           5.1119  -29.5478   21.8022 H      401  DMS401      0.0000
      6 H           5.1772  -28.1129   22.9053 H      401  DMS401      0.0000
      7 H           6.2689  -29.5246   23.1856 H      401  DMS401      0.0000
      8 H           5.2953  -27.9408   19.7588 H      401  DMS401      0.0000
      9 H           6.5593  -26.6651   19.6053 H      401  DMS401      0.0000
     10 H           5.3325  -26.5562   20.9242 H      401  DMS401      0.0000
@<TRIPOS>BOND
     1     1     2    2
     2     1     3    1
     3     1     4    1
     4     3     5    1
     5     3     6    1
     6     3     7    1
     7     4     8    1
     8     4     9    1
     9     4    10    1

