@<TRIPOS>MOLECULE
EDO_1_A_403
 10 9 0 0 0
SMALL
NO_CHARGES

@<TRIPOS>ATOM
      1 C1         20.3570    5.3190  -34.7290 C.3    403  EDO403      0.0000
      2 O1         19.8750    4.6500  -35.9010 O.3    403  EDO403      0.0000
      3 C2         19.1670    5.8760  -33.9600 C.3    403  EDO403      0.0000
      4 O2         18.3330    6.6030  -34.8680 O.3    403  EDO403      0.0000
      5 H          21.0467    6.1352  -35.0307 H      403  EDO403      0.0000
      6 H          20.9359    4.6060  -34.1072 H      403  EDO403      0.0000
      7 H          19.2231    5.2242  -36.2873 H      403  EDO403      0.0000
      8 H          19.5092    6.5422  -33.1404 H      403  EDO403      0.0000
      9 H          18.5831    5.0494  -33.5021 H      403  EDO403      0.0000
     10 H          17.5937    6.9433  -34.3822 H      403  EDO403      0.0000
@<TRIPOS>BOND
     1     1     2    1
     2     1     3    1
     3     1     5    1
     4     1     6    1
     5     2     7    1
     6     3     4    1
     7     3     8    1
     8     3     9    1
     9     4    10    1

