@<TRIPOS>MOLECULE
EDO_1_B_604
 10 9 0 0 0
SMALL
NO_CHARGES

@<TRIPOS>ATOM
      1 C1          1.7110   -1.8090  -15.5890 C.3    604  EDO604      0.0000
      2 O1          0.3180   -1.5590  -15.3780 O.3    604  EDO604      0.0000
      3 C2          1.9220   -3.1770  -16.2420 C.3    604  EDO604      0.0000
      4 O2          1.5210   -3.1410  -17.6220 O.3    604  EDO604      0.0000
      5 H           2.2359   -1.7696  -14.6109 H      604  EDO604      0.0000
      6 H           2.1381   -0.9976  -16.2129 H      604  EDO604      0.0000
      7 H          -0.0304   -2.2311  -14.8076 H      604  EDO604      0.0000
      8 H           1.3489   -3.9665  -15.7143 H      604  EDO604      0.0000
      9 H           2.9929   -3.4659  -16.1856 H      604  EDO604      0.0000
     10 H           2.0494   -2.4985  -18.0764 H      604  EDO604      0.0000
@<TRIPOS>BOND
     1     1     2    1
     2     1     3    1
     3     1     5    1
     4     1     6    1
     5     2     7    1
     6     3     4    1
     7     3     8    1
     8     3     9    1
     9     4    10    1

