@<TRIPOS>MOLECULE
EDO_1_B_605
 10 9 0 0 0
SMALL
NO_CHARGES

@<TRIPOS>ATOM
      1 C1          7.4510  -17.0700    0.0920 C.3    605  EDO605      0.0000
      2 O1          8.7910  -17.5750    0.1930 O.3    605  EDO605      0.0000
      3 C2          6.7370  -17.6860   -1.1060 C.3    605  EDO605      0.0000
      4 O2          6.3060  -19.0010   -0.7380 O.3    605  EDO605      0.0000
      5 H           7.4961  -15.9669   -0.0330 H      605  EDO605      0.0000
      6 H           6.8955  -17.2690    1.0326 H      605  EDO605      0.0000
      7 H           9.2059  -17.1657    0.9406 H      605  EDO605      0.0000
      8 H           7.3914  -17.7259   -2.0013 H      605  EDO605      0.0000
      9 H           5.8429  -17.0852   -1.3729 H      605  EDO605      0.0000
     10 H           7.0877  -19.4975   -0.5291 H      605  EDO605      0.0000
@<TRIPOS>BOND
     1     1     2    1
     2     1     3    1
     3     1     5    1
     4     1     6    1
     5     2     7    1
     6     3     4    1
     7     3     8    1
     8     3     9    1
     9     4    10    1

