@<TRIPOS>MOLECULE
EDO_1_B_602
 10 9 0 0 0
SMALL
NO_CHARGES

@<TRIPOS>ATOM
      1 C1        -19.1390   -7.5210   14.4750 C.3    602  EDO602      0.0000
      2 O1        -18.1650   -8.4590   14.9570 O.3    602  EDO602      0.0000
      3 C2        -19.1690   -7.5730   12.9520 C.3    602  EDO602      0.0000
      4 O2        -18.9480   -8.9220   12.5420 O.3    602  EDO602      0.0000
      5 H         -18.8980   -6.4978   14.8315 H      602  EDO602      0.0000
      6 H         -20.1362   -7.7929   14.8824 H      602  EDO602      0.0000
      7 H         -18.1920   -8.4512   15.9044 H      602  EDO602      0.0000
      8 H         -18.3693   -6.9315   12.5254 H      602  EDO602      0.0000
      9 H         -20.1374   -7.2100   12.5521 H      602  EDO602      0.0000
     10 H         -18.2445   -9.2691   13.0777 H      602  EDO602      0.0000
@<TRIPOS>BOND
     1     1     2    1
     2     1     3    1
     3     1     5    1
     4     1     6    1
     5     2     7    1
     6     3     4    1
     7     3     8    1
     8     3     9    1
     9     4    10    1

