@<TRIPOS>MOLECULE
EDO_1_A_402
 10 9 0 0 0
SMALL
NO_CHARGES

@<TRIPOS>ATOM
      1 C1         22.4500   -8.7990   -8.1360 C.3    402  EDO402      0.0000
      2 O1         22.7360   -8.0000   -9.2870 O.3    402  EDO402      0.0000
      3 C2         21.2290   -9.6420   -8.4700 C.3    402  EDO402      0.0000
      4 O2         21.5260  -10.3430   -9.6810 O.3    402  EDO402      0.0000
      5 H          22.2557   -8.1465   -7.2596 H      402  EDO402      0.0000
      6 H          23.3193   -9.4478   -7.8972 H      402  EDO402      0.0000
      7 H          23.6039   -7.6316   -9.1860 H      402  EDO402      0.0000
      8 H          20.3355   -8.9976   -8.6117 H      402  EDO402      0.0000
      9 H          21.0085  -10.3645   -7.6570 H      402  EDO402      0.0000
     10 H          20.7171  -10.6983  -10.0258 H      402  EDO402      0.0000
@<TRIPOS>BOND
     1     1     2    1
     2     1     3    1
     3     1     5    1
     4     1     6    1
     5     2     7    1
     6     3     4    1
     7     3     8    1
     8     3     9    1
     9     4    10    1

