@<TRIPOS>MOLECULE
EDO_1_A_404
 10 9 0 0 0
SMALL
NO_CHARGES

@<TRIPOS>ATOM
      1 C1         24.7740   -9.8630  -36.6550 C.3    404  EDO404      0.0000
      2 O1         25.0560  -11.1440  -37.2350 O.3    404  EDO404      0.0000
      3 C2         25.8650   -8.8740  -37.0320 C.3    404  EDO404      0.0000
      4 O2         25.3170   -7.9590  -37.9880 O.3    404  EDO404      0.0000
      5 H          24.7501   -9.9883  -35.5521 H      404  EDO404      0.0000
      6 H          23.7641   -9.5122  -36.9537 H      404  EDO404      0.0000
      7 H          24.6596  -11.1703  -38.0960 H      404  EDO404      0.0000
      8 H          26.7712   -9.3748  -37.4317 H      404  EDO404      0.0000
      9 H          26.1806   -8.2942  -36.1397 H      404  EDO404      0.0000
     10 H          25.6016   -8.2253  -38.8523 H      404  EDO404      0.0000
@<TRIPOS>BOND
     1     1     2    1
     2     1     3    1
     3     1     5    1
     4     1     6    1
     5     2     7    1
     6     3     4    1
     7     3     8    1
     8     3     9    1
     9     4    10    1

