EDO_1_A_404
  -ISIS-            3D

 10  9  0  0  0  0  0  0  0  0  1 V2000
   24.7740   -9.8630  -36.6550 C   0  0  0  0  0
   25.0560  -11.1440  -37.2350 O   0  0  0  0  0
   25.8650   -8.8740  -37.0320 C   0  0  0  0  0
   25.3170   -7.9590  -37.9880 O   0  0  0  0  0
   24.7501   -9.9883  -35.5521 H   0  0  0  0  0
   23.7641   -9.5122  -36.9537 H   0  0  0  0  0
   24.6596  -11.1703  -38.0960 H   0  0  0  0  0
   26.7712   -9.3748  -37.4317 H   0  0  0  0  0
   26.1806   -8.2942  -36.1397 H   0  0  0  0  0
   25.6016   -8.2253  -38.8523 H   0  0  0  0  0
  1  2  1  0  0  0
  1  3  1  0  0  0
  1  5  1  0  0  0
  1  6  1  0  0  0
  2  7  1  0  0  0
  3  4  1  0  0  0
  3  8  1  0  0  0
  3  9  1  0  0  0
  4 10  1  0  0  0
M  END
$$$$
