EDO_1_B_603
  -ISIS-            3D

 10  9  0  0  0  0  0  0  0  0  1 V2000
    1.8310  -20.3020   -1.9330 C   0  0  0  0  0
    3.2400  -20.1450   -1.7300 O   0  0  0  0  0
    1.5600  -21.3400   -3.0180 C   0  0  0  0  0
    1.5630  -22.6490   -2.4360 O   0  0  0  0  0
    1.4080  -19.3231   -2.2453 H   0  0  0  0  0
    1.3351  -20.5820   -0.9800 H   0  0  0  0  0
    3.3720  -19.4871   -1.0602 H   0  0  0  0  0
    2.3033  -21.2786   -3.8398 H   0  0  0  0  0
    0.5606  -21.1657   -3.4683 H   0  0  0  0  0
    2.4400  -22.8047   -2.1087 H   0  0  0  0  0
  1  2  1  0  0  0
  1  3  1  0  0  0
  1  5  1  0  0  0
  1  6  1  0  0  0
  2  7  1  0  0  0
  3  4  1  0  0  0
  3  8  1  0  0  0
  3  9  1  0  0  0
  4 10  1  0  0  0
M  END
$$$$
