MYC_1_A_407
  -ISIS-            3D

 35 37  0  0  0  0  0  0  0  0  1 V2000
   22.6390    3.0130  -32.1600 C   0  0  0  0  0
   21.7470    3.5150  -31.2220 C   0  0  0  0  0
   22.0440    3.4310  -29.8620 C   0  0  0  0  0
   23.2410    2.8390  -29.4460 C   0  0  0  0  0
   24.1280    2.3410  -30.3910 C   0  0  0  0  0
   23.8270    2.4300  -31.7460 C   0  0  0  0  0
   21.0830    3.9590  -28.8480 C   0  0  0  0  0
   21.4240    3.8440  -27.5070 C   0  0  0  0  0
   22.7010    3.1890  -27.1380 C   0  0  0  0  0
   23.0770    3.1420  -25.7000 C   0  0  0  0  0
   24.3260    3.7010  -25.4450 C   0  0  0  0  0
   24.8200    3.7880  -24.1530 C   0  0  0  0  0
   24.0590    3.3190  -23.1140 C   0  0  0  0  0
   22.8020    2.7710  -23.3490 C   0  0  0  0  0
   22.2700    2.6750  -24.6480 C   0  0  0  0  0
   23.5600    2.7430  -28.1150 O   0  0  0  0  0
   19.9970    4.4930  -29.2060 O   0  0  0  0  0
   22.1150    2.3340  -22.2690 O   0  0  0  0  0
   24.5520    3.4090  -21.8550 O   0  0  0  0  0
   26.0540    4.3170  -23.9030 O   0  0  0  0  0
   20.6100    4.3030  -26.5090 O   0  0  0  0  0
   24.6920    1.9500  -32.6760 O   0  0  0  0  0
   20.5840    4.0920  -31.6390 O   0  0  0  0  0
   22.4017    3.0813  -33.2353 H   0  0  0  0  0
   25.0744    1.8745  -30.0713 H   0  0  0  0  0
   21.9201    4.8598  -27.5538 H   0  0  0  0  0
   22.1739    2.1922  -27.0817 H   0  0  0  0  0
   24.9312    4.0816  -26.2857 H   0  0  0  0  0
   21.2694    2.2531  -24.8352 H   0  0  0  0  0
   21.2605    1.9891  -22.4882 H   0  0  0  0  0
   25.4122    3.8108  -21.8945 H   0  0  0  0  0
   26.4945    4.6086  -24.6881 H   0  0  0  0  0
   19.7750    4.5722  -26.8767 H   0  0  0  0  0
   24.4021    2.0516  -33.5711 H   0  0  0  0  0
   20.4588    4.1070  -32.5771 H   0  0  0  0  0
  1  2  2  0  0  0
  1  6  1  0  0  0
  1 24  1  0  0  0
  2  3  1  0  0  0
  2 23  1  0  0  0
  3  4  2  0  0  0
  3  7  1  0  0  0
  4  5  1  0  0  0
  4 16  1  0  0  0
  5  6  2  0  0  0
  5 25  1  0  0  0
  6 22  1  0  0  0
  7  8  1  0  0  0
  7 17  2  0  0  0
  8  9  1  0  0  0
  8 21  1  0  0  0
  8 26  1  0  0  0
  9 10  1  0  0  0
  9 16  1  0  0  0
  9 27  1  0  0  0
 10 11  2  0  0  0
 10 15  1  0  0  0
 11 12  1  0  0  0
 11 28  1  0  0  0
 12 13  2  0  0  0
 12 20  1  0  0  0
 13 14  1  0  0  0
 13 19  1  0  0  0
 14 15  2  0  0  0
 14 18  1  0  0  0
 15 29  1  0  0  0
 18 30  1  0  0  0
 19 31  1  0  0  0
 20 32  1  0  0  0
 21 33  1  0  0  0
 22 34  1  0  0  0
 23 35  1  0  0  0
M  END
$$$$
