@<TRIPOS>MOLECULE
MYC_1_B_606
 35 37 0 0 0
SMALL
NO_CHARGES

@<TRIPOS>ATOM
      1 C1        -18.0090   -9.9060    0.0300 C.ar   606  MYC606      0.0000
      2 C2        -17.4350  -10.0050   -1.2360 C.ar   606  MYC606      0.0000
      3 C3        -16.4540  -10.9650   -1.4900 C.ar   606  MYC606      0.0000
      4 C4        -16.0560  -11.8090   -0.4520 C.ar   606  MYC606      0.0000
      5 C5        -16.6240  -11.7050    0.8110 C.ar   606  MYC606      0.0000
      6 C6        -17.5970  -10.7480    1.0550 C.ar   606  MYC606      0.0000
      7 C9        -15.8210  -11.0950   -2.8430 C.2    606  MYC606      0.0000
      8 C10       -14.8480  -12.0600   -3.0110 C.2    606  MYC606      0.0000
      9 C11       -14.4720  -12.8990   -1.8470 C.2    606  MYC606      0.0000
     10 C14       -13.4990  -13.9930   -2.0050 C.ar   606  MYC606      0.0000
     11 C15       -13.9910  -15.2090   -1.5360 C.ar   606  MYC606      0.0000
     12 C16       -13.2360  -16.3560   -1.6330 C.ar   606  MYC606      0.0000
     13 C17       -11.9950  -16.2830   -2.2190 C.ar   606  MYC606      0.0000
     14 C18       -11.5030  -15.0710   -2.7010 C.ar   606  MYC606      0.0000
     15 C19       -12.2500  -13.8930   -2.6080 C.ar   606  MYC606      0.0000
     16 O12       -15.0980  -12.7620   -0.6450 O.3    606  MYC606      0.0000
     17 O13       -16.1470  -10.3620   -3.8220 O.2    606  MYC606      0.0000
     18 O23       -10.2780  -15.0310   -3.2780 O.3    606  MYC606      0.0000
     19 O24       -11.2730  -17.4270   -2.3020 O.3    606  MYC606      0.0000
     20 O25       -13.7090  -17.5430   -1.1570 O.3    606  MYC606      0.0000
     21 O27       -14.2370  -12.2370   -4.2170 O.3    606  MYC606      0.0000
     22 O29       -18.1580  -10.6490    2.2920 O.3    606  MYC606      0.0000
     23 O30       -17.8560   -9.1660   -2.2250 O.3    606  MYC606      0.0000
     24 H         -18.7924   -9.1528    0.2203 H      606  MYC606      0.0000
     25 H         -16.3036  -12.3798    1.6219 H      606  MYC606      0.0000
     26 H         -15.6432  -12.8028   -3.3221 H      606  MYC606      0.0000
     27 H         -13.6673  -12.1540   -1.5772 H      606  MYC606      0.0000
     28 H         -14.9927  -15.2758   -1.0791 H      606  MYC606      0.0000
     29 H         -11.8774  -12.9302   -2.9937 H      606  MYC606      0.0000
     30 H         -10.0422  -14.1706   -3.5932 H      606  MYC606      0.0000
     31 H         -10.4530  -17.2093   -2.7280 H      606  MYC606      0.0000
     32 H         -13.0459  -18.2029   -1.3210 H      606  MYC606      0.0000
     33 H         -14.5057  -11.5472   -4.8149 H      606  MYC606      0.0000
     34 H         -18.8174   -9.9739    2.3637 H      606  MYC606      0.0000
     35 H         -18.5284   -8.5513   -1.9688 H      606  MYC606      0.0000
@<TRIPOS>BOND
     1     1     2   ar
     2     1     6   ar
     3     1    24    1
     4     2     3   ar
     5     2    23    1
     6     3     4   ar
     7     3     7    1
     8     4     5   ar
     9     4    16    1
    10     5     6   ar
    11     5    25    1
    12     6    22    1
    13     7     8    1
    14     7    17    2
    15     8     9    1
    16     8    21    1
    17     8    26    1
    18     9    10    1
    19     9    16    1
    20     9    27    1
    21    10    11   ar
    22    10    15   ar
    23    11    12   ar
    24    11    28    1
    25    12    13   ar
    26    12    20    1
    27    13    14   ar
    28    13    19    1
    29    14    15   ar
    30    14    18    1
    31    15    29    1
    32    18    30    1
    33    19    31    1
    34    20    32    1
    35    21    33    1
    36    22    34    1
    37    23    35    1

