@<TRIPOS>MOLECULE
GTA_1_A_7102
 79 84 0 0 0
SMALL
NO_CHARGES

@<TRIPOS>ATOM
      1 N2         83.0750   30.9730   45.3700 N.pl3 7102  GTA7102      0.0000
      2 O6         85.3550   32.1910   41.5900 O.2   7102  GTA7102      0.0000
      3 C6         85.0000   31.2670   42.3150 C.ar  7102  GTA7102      0.0000
      4 C5         85.2620   29.9060   42.1720 C.ar  7102  GTA7102      0.0000
      5 N7         85.9690   29.1780   41.2090 N.ar  7102  GTA7102      0.0000
      6 C7         86.6280   29.7180   40.0230 C.3   7102  GTA7102      0.0000
      7 C8         85.9390   27.8910   41.5540 C.ar  7102  GTA7102      0.0000
      8 N9         85.2230   27.7340   42.6490 N.ar  7102  GTA7102      0.0000
      9 C4         84.7900   28.9910   43.0780 C.ar  7102  GTA7102      0.0000
     10 N3         84.0510   29.2570   44.1750 N.ar  7102  GTA7102      0.0000
     11 C2         83.7990   30.5480   44.3280 C.ar  7102  GTA7102      0.0000
     12 N1         84.2430   31.5030   43.4490 N.ar  7102  GTA7102      0.0000
     13 O3A        83.0070   23.9590   41.8330 O.3   7102  GTA7102      0.0000
     14 C1A        85.0940   26.4960   43.4440 C.3   7102  GTA7102      0.0000
     15 C2A        83.7190   25.8780   43.2370 C.3   7102  GTA7102      0.0000
     16 C3A        83.9880   24.9650   42.0570 C.3   7102  GTA7102      0.0000
     17 C4A        85.3430   24.3790   42.4750 C.3   7102  GTA7102      0.0000
     18 C5A        86.1800   23.7720   41.3700 C.3   7102  GTA7102      0.0000
     19 O4A        86.0390   25.5180   43.0580 O.3   7102  GTA7102      0.0000
     20 O2A        83.3770   25.1610   44.4140 O.3   7102  GTA7102      0.0000
     21 P1         86.6890   24.3990   38.8420 P.3   7102  GTA7102      0.0000
     22 O11        88.1200   24.1030   38.5640 O.co2 7102  GTA7102      0.0000
     23 O12        85.6710   23.3840   38.4810 O.co2 7102  GTA7102      0.0000
     24 O13        86.3240   25.8110   38.1580 O.3   7102  GTA7102      0.0000
     25 O15        86.5210   24.7950   40.3910 O.3   7102  GTA7102      0.0000
     26 P2         84.9770   26.6480   37.9040 P.3   7102  GTA7102      0.0000
     27 O22        85.3340   28.0140   37.4200 O.co2 7102  GTA7102      0.0000
     28 O21        84.0460   26.5050   39.0680 O.co2 7102  GTA7102      0.0000
     29 O23        84.3500   25.8020   36.7000 O.3   7102  GTA7102      0.0000
     30 P3         82.8620   25.8270   36.1120 P.3   7102  GTA7102      0.0000
     31 O32        82.5570   27.2290   35.6910 O.co2 7102  GTA7102      0.0000
     32 O31        81.9290   25.1600   37.0700 O.co2 7102  GTA7102      0.0000
     33 O33        83.0410   24.8790   34.8330 O.3   7102  GTA7102      0.0000
     34 C5B        83.7330   25.3450   33.6540 C.3   7102  GTA7102      0.0000
     35 C4B        83.3920   24.4280   32.5070 C.3   7102  GTA7102      0.0000
     36 O4B        83.8370   23.0840   32.8250 O.3   7102  GTA7102      0.0000
     37 C3B        81.9000   24.2690   32.1880 C.3   7102  GTA7102      0.0000
     38 O3B        81.4050   25.3190   31.3650 O.3   7102  GTA7102      0.0000
     39 C2B        81.8950   22.9130   31.4810 C.3   7102  GTA7102      0.0000
     40 O2B        82.3010   22.9960   30.1310 O.3   7102  GTA7102      0.0000
     41 C1B        82.9140   22.1410   32.3190 C.3   7102  GTA7102      0.0000
     42 N9C        82.3100   21.4150   33.4420 N.ar  7102  GTA7102      0.0000
     43 C8C        82.0720   21.8660   34.7240 C.ar  7102  GTA7102      0.0000
     44 N7C        81.5070   20.9530   35.4830 N.ar  7102  GTA7102      0.0000
     45 C5C        81.3640   19.8450   34.6550 C.ar  7102  GTA7102      0.0000
     46 C6C        80.8330   18.5570   34.8670 C.ar  7102  GTA7102      0.0000
     47 N6C        80.3260   18.1480   36.0260 N.pl3 7102  GTA7102      0.0000
     48 N1C        80.8460   17.6960   33.8200 N.ar  7102  GTA7102      0.0000
     49 C2C        81.3580   18.1120   32.6530 C.ar  7102  GTA7102      0.0000
     50 N3C        81.8830   19.2950   32.3380 N.ar  7102  GTA7102      0.0000
     51 C4C        81.8540   20.1240   33.3960 C.ar  7102  GTA7102      0.0000
     52 H          87.1598   28.9066   39.4798 H     7102  GTA7102      0.0000
     53 H          87.3655   30.4909   40.3319 H     7102  GTA7102      0.0000
     54 H          85.8653   30.1739   39.3543 H     7102  GTA7102      0.0000
     55 H          86.4306   27.0475   41.0597 H     7102  GTA7102      0.0000
     56 H          82.4563   24.2337   41.1117 H     7102  GTA7102      0.0000
     57 H          85.2513   26.7565   44.5126 H     7102  GTA7102      0.0000
     58 H          82.9395   26.6336   43.0102 H     7102  GTA7102      0.0000
     59 H          84.1176   25.5761   41.1437 H     7102  GTA7102      0.0000
     60 H          85.1847   23.6139   43.2658 H     7102  GTA7102      0.0000
     61 H          85.6212   22.9352   40.9036 H     7102  GTA7102      0.0000
     62 H          87.1181   23.3480   41.7853 H     7102  GTA7102      0.0000
     63 H          82.7425   24.5017   44.1593 H     7102  GTA7102      0.0000
     64 H          84.8273   25.3532   33.8397 H     7102  GTA7102      0.0000
     65 H          83.4239   26.3810   33.4032 H     7102  GTA7102      0.0000
     66 H          83.9276   24.7699   31.5949 H     7102  GTA7102      0.0000
     67 H          81.3100   24.2066   33.1270 H     7102  GTA7102      0.0000
     68 H          80.4679   25.3859   31.4912 H     7102  GTA7102      0.0000
     69 H          80.8919   22.4406   31.5331 H     7102  GTA7102      0.0000
     70 H          81.9736   23.8216   29.7928 H     7102  GTA7102      0.0000
     71 H          83.4502   21.3954   31.6951 H     7102  GTA7102      0.0000
     72 H          82.2864   22.8342   35.1801 H     7102  GTA7102      0.0000
     73 H          81.3425   17.3683   31.8377 H     7102  GTA7102      0.0000
     74 H          82.8782   31.9748   45.4826 H     7102  GTA7102      0.0000
     75 H          82.7607   30.2274   46.0024 H     7102  GTA7102      0.0000
     76 H          79.9727   17.1832   36.0367 H     7102  GTA7102      0.0000
     77 H          80.3288   18.8183   36.8054 H     7102  GTA7102      0.0000
     78 H          83.9706   32.4630   43.6880 H     7102  GTA7102      0.0000
     79 H          88.2683   23.8961   37.4616 H     7102  GTA7102      0.0000
@<TRIPOS>BOND
     1     1    11    1
     2     1    74    1
     3     1    75    1
     4     2     3    2
     5     3     4   ar
     6     3    12   ar
     7     4     5   ar
     8     4     9   ar
     9     5     6    1
    10     5     7   ar
    11     6    52    1
    12     6    53    1
    13     6    54    1
    14     7     8   ar
    15     7    55    1
    16     8     9   ar
    17     8    14    1
    18     9    10   ar
    19    10    11   ar
    20    11    12   ar
    21    12    78    1
    22    13    16    1
    23    13    56    1
    24    14    15    1
    25    14    19    1
    26    14    57    1
    27    15    16    1
    28    15    20    1
    29    15    58    1
    30    16    17    1
    31    16    59    1
    32    17    18    1
    33    17    19    1
    34    17    60    1
    35    18    25    1
    36    18    61    1
    37    18    62    1
    38    20    63    1
    39    21    22    1
    40    21    23    2
    41    21    24    1
    42    21    25    1
    43    24    26    1
    44    26    27    2
    45    26    28    2
    46    26    29    1
    47    29    30    1
    48    30    31    2
    49    30    32    2
    50    30    33    1
    51    33    34    1
    52    34    35    1
    53    34    64    1
    54    34    65    1
    55    35    36    1
    56    35    37    1
    57    35    66    1
    58    36    41    1
    59    37    38    1
    60    37    39    1
    61    37    67    1
    62    38    68    1
    63    39    40    1
    64    39    41    1
    65    39    69    1
    66    40    70    1
    67    41    42    1
    68    41    71    1
    69    42    43   ar
    70    42    51   ar
    71    43    44   ar
    72    43    72    1
    73    44    45   ar
    74    45    46   ar
    75    45    51   ar
    76    46    47    1
    77    46    48   ar
    78    47    76    1
    79    47    77    1
    80    48    49   ar
    81    49    50   ar
    82    49    73    1
    83    50    51   ar
    84    22    79    1

