EDO_1_B_201
  -ISIS-            3D

 10  9  0  0  0  0  0  0  0  0  1 V2000
  112.0720  -22.8790   22.3930 C   0  0  0  0  0
  112.8110  -21.7600   21.8930 O   0  0  0  0  0
  112.6120  -24.1380   21.7180 C   0  0  0  0  0
  113.9630  -23.9050   21.2920 O   0  0  0  0  0
  110.9879  -22.7494   22.1938 H   0  0  0  0  0
  112.2114  -22.9460   23.4930 H   0  0  0  0  0
  112.5334  -20.9873   22.3666 H   0  0  0  0  0
  111.9976  -24.3938   20.8291 H   0  0  0  0  0
  112.5800  -25.0091   22.4036 H   0  0  0  0  0
  114.0002  -23.0411   20.9009 H   0  0  0  0  0
  1  2  1  0  0  0
  1  3  1  0  0  0
  1  5  1  0  0  0
  1  6  1  0  0  0
  2  7  1  0  0  0
  3  4  1  0  0  0
  3  8  1  0  0  0
  3  9  1  0  0  0
  4 10  1  0  0  0
M  END
$$$$
