ZU5_2_A_2001
  -ISIS-            3D

 93 95  0  0  0  0  0  0  0  0  1 V2000
  -31.9710    3.6200   31.5340 C   0  0  0  0  0
  -33.1740    3.3830   31.2920 O   0  0  0  0  0
  -31.8680    4.4600   32.6230 O   0  0  0  0  0
  -32.8350    5.0810   33.4860 C   0  0  0  0  0
  -33.5720    6.1950   32.7850 C   0  0  0  0  0
  -34.8250    6.0220   32.2800 C   0  0  0  0  0
  -35.5950    7.0770   31.5820 C   0  0  0  0  0
  -34.9590    8.4120   31.4220 C   0  0  0  0  0
  -33.6060    8.5950   31.9680 C   0  0  0  0  0
  -32.9160    7.4820   32.6480 C   0  0  0  0  0
  -31.0020    3.0370   30.7180 N   0  0  0  0  0
  -31.2180    2.1690   29.5980 C   0  0  0  0  0
  -30.3000    1.1040   29.8170 C   0  0  0  0  0
  -29.1130    0.9270   29.8730 O   0  0  0  0  0
  -30.8700    2.9700   28.3460 C   0  0  0  0  0
  -31.6040    4.1480   27.8240 O   0  0  0  0  0
  -31.1070    2.1210   27.0450 C   0  0  0  0  0
  -31.1460    5.5420   27.5200 C   0  0  0  0  0
  -29.7450    5.4460   26.9190 C   0  0  0  0  0
  -31.0420    6.3340   28.9210 C   0  0  0  0  0
  -32.3420    6.3320   27.0240 C   0  0  0  0  0
  -31.1550    0.0890   29.9660 N   0  0  0  0  0
  -30.6470   -1.2660   30.1950 C   0  0  0  0  0
  -29.9840   -1.8650   28.9590 C   0  0  0  0  0
  -30.5460   -1.7270   27.8820 O   0  0  0  0  0
  -31.7730   -2.1000   30.8610 C   0  0  0  0  0
  -32.4250   -2.1200   32.2290 C   0  0  0  0  0
  -31.3900   -2.2770   33.3520 C   0  0  0  0  0
  -33.4760   -3.2480   32.2850 C   0  0  0  0  0
  -29.4870   -7.3010   26.6350 C   0  0  0  0  0
  -30.6000   -7.7130   27.6330 C   0  0  0  0  0
  -30.8990   -6.6500   26.5840 C   0  0  0  0  0
  -28.4280   -6.2300   26.9910 C   0  0  0  0  0
  -28.7260   -5.0530   27.9020 C   0  0  0  0  0
  -27.7130   -4.2190   28.1060 C   0  0  0  0  0
  -27.8710   -2.8040   27.9570 C   0  0  0  0  0
  -26.8300   -1.7050   27.7250 C   0  0  0  0  0
  -26.8870   -0.2100   27.2950 C   0  0  0  0  0
  -27.3730   -0.1500   25.8410 C   0  0  0  0  0
  -26.8100    1.1700   25.3080 C   0  0  0  0  0
  -25.5850    1.2910   26.0420 N   0  0  0  0  0
  -25.6190    0.5020   27.1860 C   0  0  0  0  0
  -24.6870    0.4180   28.0150 O   0  0  0  0  0
  -27.3020   -6.3740   26.4980 O   0  0  0  0  0
  -28.7090   -2.5530   28.9970 N   0  0  0  0  0
  -32.3210    5.4887   34.3808 H   0  0  0  0  0
  -33.5506    4.3234   33.8668 H   0  0  0  0  0
  -35.3130    5.0374   32.3847 H   0  0  0  0  0
  -36.6067    6.8802   31.1915 H   0  0  0  0  0
  -35.4854    9.2340   30.9106 H   0  0  0  0  0
  -33.1026    9.5711   31.8669 H   0  0  0  0  0
  -31.8997    7.6380   33.0470 H   0  0  0  0  0
  -30.0250    3.2547   30.9604 H   0  0  0  0  0
  -32.2990    1.9217   29.5093 H   0  0  0  0  0
  -29.7868    3.2167   28.3942 H   0  0  0  0  0
  -30.7638    2.6430   26.1251 H   0  0  0  0  0
  -32.1812    1.8666   26.9075 H   0  0  0  0  0
  -30.5486    1.1608   27.0852 H   0  0  0  0  0
  -29.3645    6.4553   26.6503 H   0  0  0  0  0
  -29.7450    4.8481   25.9824 H   0  0  0  0  0
  -28.9981    4.9999   27.6083 H   0  0  0  0  0
  -30.7574    7.4003   28.7824 H   0  0  0  0  0
  -30.2609    5.8801   29.5693 H   0  0  0  0  0
  -31.9857    6.3030   29.5090 H   0  0  0  0  0
  -32.1172    7.4130   26.8925 H   0  0  0  0  0
  -33.2380    6.2434   27.6769 H   0  0  0  0  0
  -32.6524    5.9602   26.0230 H   0  0  0  0  0
  -32.1792    0.1834   29.9282 H   0  0  0  0  0
  -29.8325   -1.2149   30.9635 H   0  0  0  0  0
  -31.4016   -3.1480   30.7369 H   0  0  0  0  0
  -32.6200   -2.0479   30.1334 H   0  0  0  0  0
  -32.9490   -1.1440   32.3778 H   0  0  0  0  0
  -31.8717   -2.2770   34.3553 H   0  0  0  0  0
  -30.6519   -1.4441   33.3464 H   0  0  0  0  0
  -30.8183   -3.2273   33.2589 H   0  0  0  0  0
  -34.0030   -3.2612   33.2654 H   0  0  0  0  0
  -33.0191   -4.2534   32.1464 H   0  0  0  0  0
  -34.2579   -3.1264   31.5022 H   0  0  0  0  0
  -29.2793   -8.0281   25.8499 H   0  0  0  0  0
  -30.4699   -7.3562   28.6506 H   0  0  0  0  0
  -31.0452   -8.6885   27.4577 H   0  0  0  0  0
  -31.5260   -6.9709   25.7565 H   0  0  0  0  0
  -31.0319   -5.6404   26.9486 H   0  0  0  0  0
  -29.7566   -4.8249   28.2013 H   0  0  0  0  0
  -26.6814   -4.6024   28.0872 H   0  0  0  0  0
  -27.5847    0.3557   27.9531 H   0  0  0  0  0
  -28.4824   -0.1970   25.7638 H   0  0  0  0  0
  -26.9549   -0.9960   25.2469 H   0  0  0  0  0
  -27.5026    2.0143   25.5282 H   0  0  0  0  0
  -26.6513    1.1269   24.2073 H   0  0  0  0  0
  -24.7773    1.8736   25.7889 H   0  0  0  0  0
  -26.3773   -1.5883   28.7362 H   0  0  0  0  0
  -26.0428   -2.1592   27.0869 H   0  0  0  0  0
  1  2  2  0  0  0
  1  3  1  0  0  0
  1 11  1  0  0  0
  3  4  1  0  0  0
  4  5  1  0  0  0
  4 46  1  0  0  0
  4 47  1  0  0  0
  5  6  2  0  0  0
  5 10  1  0  0  0
  6  7  1  0  0  0
  6 48  1  0  0  0
  7  8  1  0  0  0
  7 49  1  0  0  0
  8  9  1  0  0  0
  8 50  1  0  0  0
  9 10  1  0  0  0
  9 51  1  0  0  0
 10 52  1  0  0  0
 11 12  1  0  0  0
 11 53  1  0  0  0
 12 13  1  0  0  0
 12 15  1  0  0  0
 12 54  1  0  0  0
 13 14  2  0  0  0
 13 22  1  0  0  0
 15 16  1  0  0  0
 15 17  1  0  0  0
 15 55  1  0  0  0
 16 18  1  0  0  0
 17 56  1  0  0  0
 17 57  1  0  0  0
 17 58  1  0  0  0
 18 19  1  0  0  0
 18 20  1  0  0  0
 18 21  1  0  0  0
 19 59  1  0  0  0
 19 60  1  0  0  0
 19 61  1  0  0  0
 20 62  1  0  0  0
 20 63  1  0  0  0
 20 64  1  0  0  0
 21 65  1  0  0  0
 21 66  1  0  0  0
 21 67  1  0  0  0
 22 23  1  0  0  0
 22 68  1  0  0  0
 23 24  1  0  0  0
 23 26  1  0  0  0
 23 69  1  0  0  0
 24 25  2  0  0  0
 24 45  1  0  0  0
 26 27  1  0  0  0
 26 70  1  0  0  0
 26 71  1  0  0  0
 27 28  1  0  0  0
 27 29  1  0  0  0
 27 72  1  0  0  0
 28 73  1  0  0  0
 28 74  1  0  0  0
 28 75  1  0  0  0
 29 76  1  0  0  0
 29 77  1  0  0  0
 29 78  1  0  0  0
 30 31  1  0  0  0
 30 32  1  0  0  0
 30 33  1  0  0  0
 30 79  1  0  0  0
 31 32  1  0  0  0
 31 80  1  0  0  0
 31 81  1  0  0  0
 32 82  1  0  0  0
 32 83  1  0  0  0
 33 34  1  0  0  0
 33 44  2  0  0  0
 34 35  2  0  0  0
 34 84  1  0  0  0
 35 36  1  0  0  0
 35 85  1  0  0  0
 36 37  1  0  0  0
 36 45  2  0  0  0
 37 38  1  0  0  0
 37 92  1  0  0  0
 37 93  1  0  0  0
 38 39  1  0  0  0
 38 42  1  0  0  0
 38 86  1  0  0  0
 39 40  1  0  0  0
 39 87  1  0  0  0
 39 88  1  0  0  0
 40 41  1  0  0  0
 40 89  1  0  0  0
 40 90  1  0  0  0
 41 42  1  0  0  0
 41 91  1  0  0  0
 42 43  2  0  0  0
M  END
$$$$
