@<TRIPOS>MOLECULE
5GP_1_A_201
 37 39 0 0 0
SMALL
NO_CHARGES

@<TRIPOS>ATOM
      1 P          -5.8250   31.4880   13.8940 P.3    201  5GP201      0.0000
      2 O1P        -7.1860   31.2090   13.3010 O.co2  201  5GP201     -0.5000
      3 O2P        -5.8850   32.0680   15.2870 O.co2  201  5GP201     -0.5000
      4 O3P        -4.8480   30.3200   13.8200 O.co2  201  5GP201      0.0000
      5 O5'        -5.2610   32.6630   12.9290 O.3    201  5GP201      0.0000
      6 C5'        -3.8640   32.9320   12.8770 C.3    201  5GP201      0.0000
      7 C4'        -3.5970   33.8550   11.7140 C.3    201  5GP201      0.0000
      8 O4'        -4.0150   33.2040   10.4850 O.3    201  5GP201      0.0000
      9 C3'        -4.3260   35.2030   11.7120 C.3    201  5GP201      0.0000
     10 O3'        -3.5150   36.1980   11.0980 O.3    201  5GP201      0.0000
     11 C2'        -5.5350   34.9490   10.8120 C.3    201  5GP201      0.0000
     12 O2'        -6.0270   36.1240   10.2070 O.3    201  5GP201      0.0000
     13 C1'        -4.9310   34.0160    9.7810 C.3    201  5GP201      0.0000
     14 N9         -5.8900   33.1340    9.1440 N.ar   201  5GP201      0.0000
     15 C8         -6.8590   32.3860    9.7570 C.ar   201  5GP201      0.0000
     16 N7         -7.4990   31.5970    8.9320 N.ar   201  5GP201      0.0000
     17 C5         -6.9000   31.8280    7.6990 C.ar   201  5GP201      0.0000
     18 C6         -7.1730   31.2680    6.4330 C.ar   201  5GP201      0.0000
     19 O6         -7.9880   30.3870    6.1420 O.2    201  5GP201      0.0000
     20 N1         -6.3110   31.7670    5.4660 N.ar   201  5GP201      0.0000
     21 C2         -5.3520   32.7290    5.6710 C.ar   201  5GP201      0.0000
     22 N2         -4.6200   33.0830    4.6170 N.pl3  201  5GP201      0.0000
     23 N3         -5.0960   33.2600    6.8580 N.ar   201  5GP201      0.0000
     24 C4         -5.9020   32.7640    7.8190 C.ar   201  5GP201      0.0000
     25 H          -3.2850   31.9945   12.7447 H      201  5GP201      0.0000
     26 H          -3.5352   33.4011   13.8278 H      201  5GP201      0.0000
     27 H          -2.5016   34.0378   11.6666 H      201  5GP201      0.0000
     28 H          -4.6216   35.5249   12.7310 H      201  5GP201      0.0000
     29 H          -4.1003   36.8726   10.7725 H      201  5GP201      0.0000
     30 H          -6.3350   34.4548   11.3999 H      201  5GP201      0.0000
     31 H          -6.7383   35.8778    9.6301 H      201  5GP201      0.0000
     32 H          -4.3914   34.5868    8.9963 H      201  5GP201      0.0000
     33 H          -7.1426   32.3536   10.8160 H      201  5GP201      0.0000
     34 H          -3.9014   33.7895    4.8144 H      201  5GP201      0.0000
     35 H          -4.7976   32.6545    3.7006 H      201  5GP201      0.0000
     36 H          -6.3706   31.4197    4.5026 H      201  5GP201      0.0000
     37 H          -4.8406   29.8765   12.7790 H      201  5GP201      0.0000
@<TRIPOS>BOND
     1     1     2   ar
     2     1     3   ar
     3     1     4    1
     4     1     5    1
     5     5     6    1
     6     6     7    1
     7     6    25    1
     8     6    26    1
     9     7     8    1
    10     7     9    1
    11     7    27    1
    12     8    13    1
    13     9    10    1
    14     9    11    1
    15     9    28    1
    16    10    29    1
    17    11    12    1
    18    11    13    1
    19    11    30    1
    20    12    31    1
    21    13    14    1
    22    13    32    1
    23    14    15   ar
    24    14    24   ar
    25    15    16   ar
    26    15    33    1
    27    16    17   ar
    28    17    18   ar
    29    17    24   ar
    30    18    19    2
    31    18    20   ar
    32    20    21   ar
    33    20    36    1
    34    21    22    1
    35    21    23   ar
    36    22    34    1
    37    22    35    1
    38    23    24   ar
    39     4    37    1

