@<TRIPOS>MOLECULE
EDO_1_A_209
 10 9 0 0 0
SMALL
NO_CHARGES

@<TRIPOS>ATOM
      1 C1          0.3830   31.8570  -19.0680 C.3    209  EDO209      0.0000
      2 O1         -0.8570   31.5650  -19.6560 O.3    209  EDO209      0.0000
      3 C2          0.2380   32.9410  -18.0900 C.3    209  EDO209      0.0000
      4 O2         -0.8200   32.6990  -17.1400 O.3    209  EDO209      0.0000
      5 H           1.1074   32.1298  -19.8630 H      209  EDO209      0.0000
      6 H           0.7740   30.9398  -18.5788 H      209  EDO209      0.0000
      7 H          -1.5104   31.6102  -18.9666 H      209  EDO209      0.0000
      8 H           0.0085   33.8916  -18.6168 H      209  EDO209      0.0000
      9 H           1.1939   33.1132  -17.5504 H      209  EDO209      0.0000
     10 H          -0.4487   32.2707  -16.3800 H      209  EDO209      0.0000
@<TRIPOS>BOND
     1     1     2    1
     2     1     3    1
     3     1     5    1
     4     1     6    1
     5     2     7    1
     6     3     4    1
     7     3     8    1
     8     3     9    1
     9     4    10    1

