@<TRIPOS>MOLECULE
EDO_1_A_208
 10 9 0 0 0
SMALL
NO_CHARGES

@<TRIPOS>ATOM
      1 C1         -9.5790   35.3410    3.2470 C.3    208  EDO208      0.0000
      2 O1         -9.7760   36.4910    2.4120 O.3    208  EDO208      0.0000
      3 C2         -8.2060   34.7720    3.2270 C.3    208  EDO208      0.0000
      4 O2         -7.2320   35.7560    3.0180 O.3    208  EDO208      0.0000
      5 H         -10.3246   34.5670    2.9699 H      208  EDO208      0.0000
      6 H          -9.8294   35.6423    4.2871 H      208  EDO208      0.0000
      7 H          -8.9392   36.9416    2.3838 H      208  EDO208      0.0000
      8 H          -8.1315   34.0273    2.4050 H      208  EDO208      0.0000
      9 H          -7.9966   34.2249    4.1708 H      208  EDO208      0.0000
     10 H          -6.3793   35.3421    3.0070 H      208  EDO208      0.0000
@<TRIPOS>BOND
     1     1     2    1
     2     1     3    1
     3     1     5    1
     4     1     6    1
     5     2     7    1
     6     3     4    1
     7     3     8    1
     8     3     9    1
     9     4    10    1

