EDO_1_A_210
  -ISIS-            3D

 10  9  0  0  0  0  0  0  0  0  1 V2000
    0.8940   28.4890   10.4420 C   0  0  0  0  0
   -0.0780   29.3070    9.8340 O   0  0  0  0  0
    0.3530   27.5360   11.4330 C   0  0  0  0  0
   -0.4490   26.4910   10.8970 O   0  0  0  0  0
    1.6360   29.1545   10.9320 H   0  0  0  0  0
    1.4512   27.9435    9.6510 H   0  0  0  0  0
   -0.7883   28.7412    9.5571 H   0  0  0  0  0
   -0.2558   28.0864   12.1811 H   0  0  0  0  0
    1.1886   27.0799   12.0074 H   0  0  0  0  0
    0.1211   25.8304   10.5256 H   0  0  0  0  0
  1  2  1  0  0  0
  1  3  1  0  0  0
  1  5  1  0  0  0
  1  6  1  0  0  0
  2  7  1  0  0  0
  3  4  1  0  0  0
  3  8  1  0  0  0
  3  9  1  0  0  0
  4 10  1  0  0  0
M  END
$$$$
