@<TRIPOS>MOLECULE
EDO_1_A_203
 10 9 0 0 0
SMALL
NO_CHARGES

@<TRIPOS>ATOM
      1 C1        -26.3750    8.5490    0.6190 C.3    203  EDO203      0.0000
      2 O1        -26.5340    8.7190    2.0250 O.3    203  EDO203      0.0000
      3 C2        -24.9890    8.1910    0.2490 C.3    203  EDO203      0.0000
      4 O2        -24.8710    7.7410   -1.1040 O.3    203  EDO203      0.0000
      5 H         -26.6748    9.4905    0.1133 H      203  EDO203      0.0000
      6 H         -27.0833    7.7677    0.2687 H      203  EDO203      0.0000
      7 H         -26.5788    7.8627    2.4298 H      203  EDO203      0.0000
      8 H         -24.6278    7.3701    0.9037 H      203  EDO203      0.0000
      9 H         -24.3020    9.0470    0.4198 H      203  EDO203      0.0000
     10 H         -24.9010    8.4975   -1.6749 H      203  EDO203      0.0000
@<TRIPOS>BOND
     1     1     2    1
     2     1     3    1
     3     1     5    1
     4     1     6    1
     5     2     7    1
     6     3     4    1
     7     3     8    1
     8     3     9    1
     9     4    10    1

