EDO_1_A_205
  -ISIS-            3D

 10  9  0  0  0  0  0  0  0  0  1 V2000
  -11.0980   27.6950    5.6620 C   0  0  0  0  0
  -11.5800   27.6820    7.0010 O   0  0  0  0  0
  -12.1970   27.8380    4.6850 C   0  0  0  0  0
  -13.4110   27.3220    5.1660 O   0  0  0  0  0
  -10.5583   26.7401    5.4850 H   0  0  0  0  0
  -10.3480   28.5046    5.5485 H   0  0  0  0  0
  -12.4257   27.2486    6.9893 H   0  0  0  0  0
  -11.9315   27.3466    3.7249 H   0  0  0  0  0
  -12.3443   28.9161    4.4565 H   0  0  0  0  0
  -14.0814   27.4634    4.5110 H   0  0  0  0  0
  1  2  1  0  0  0
  1  3  1  0  0  0
  1  5  1  0  0  0
  1  6  1  0  0  0
  2  7  1  0  0  0
  3  4  1  0  0  0
  3  8  1  0  0  0
  3  9  1  0  0  0
  4 10  1  0  0  0
M  END
$$$$
