EDO_1_A_203
  -ISIS-            3D

 10  9  0  0  0  0  0  0  0  0  1 V2000
  -26.3750    8.5490    0.6190 C   0  0  0  0  0
  -26.5340    8.7190    2.0250 O   0  0  0  0  0
  -24.9890    8.1910    0.2490 C   0  0  0  0  0
  -24.8710    7.7410   -1.1040 O   0  0  0  0  0
  -26.6748    9.4905    0.1133 H   0  0  0  0  0
  -27.0833    7.7677    0.2687 H   0  0  0  0  0
  -26.5788    7.8627    2.4298 H   0  0  0  0  0
  -24.6278    7.3701    0.9037 H   0  0  0  0  0
  -24.3020    9.0470    0.4198 H   0  0  0  0  0
  -24.9010    8.4975   -1.6749 H   0  0  0  0  0
  1  2  1  0  0  0
  1  3  1  0  0  0
  1  5  1  0  0  0
  1  6  1  0  0  0
  2  7  1  0  0  0
  3  4  1  0  0  0
  3  8  1  0  0  0
  3  9  1  0  0  0
  4 10  1  0  0  0
M  END
$$$$
