EDO_1_A_204
  -ISIS-            3D

 10  9  0  0  0  0  0  0  0  0  1 V2000
   -6.3040   23.0460   10.7950 C   0  0  0  0  0
   -6.4970   21.9520    9.9100 O   0  0  0  0  0
   -6.4150   24.3530   10.1220 C   0  0  0  0  0
   -7.4930   25.1240   10.6020 O   0  0  0  0  0
   -5.2995   22.9488   11.2608 H   0  0  0  0  0
   -7.0348   22.9697   11.6280 H   0  0  0  0  0
   -6.3888   21.1467   10.3986 H   0  0  0  0  0
   -6.5076   24.2314    9.0220 H   0  0  0  0  0
   -5.4845   24.9379   10.2804 H   0  0  0  0  0
   -8.2950   24.7631   10.2465 H   0  0  0  0  0
  1  2  1  0  0  0
  1  3  1  0  0  0
  1  5  1  0  0  0
  1  6  1  0  0  0
  2  7  1  0  0  0
  3  4  1  0  0  0
  3  8  1  0  0  0
  3  9  1  0  0  0
  4 10  1  0  0  0
M  END
$$$$
