@<TRIPOS>MOLECULE
EDO_1_A_210
 10 9 0 0 0
SMALL
NO_CHARGES

@<TRIPOS>ATOM
      1 C1          0.8940   28.4890   10.4420 C.3    210  EDO210      0.0000
      2 O1         -0.0780   29.3070    9.8340 O.3    210  EDO210      0.0000
      3 C2          0.3530   27.5360   11.4330 C.3    210  EDO210      0.0000
      4 O2         -0.4490   26.4910   10.8970 O.3    210  EDO210      0.0000
      5 H           1.6360   29.1545   10.9320 H      210  EDO210      0.0000
      6 H           1.4512   27.9435    9.6510 H      210  EDO210      0.0000
      7 H          -0.7883   28.7412    9.5571 H      210  EDO210      0.0000
      8 H          -0.2558   28.0864   12.1811 H      210  EDO210      0.0000
      9 H           1.1886   27.0799   12.0074 H      210  EDO210      0.0000
     10 H           0.1211   25.8304   10.5256 H      210  EDO210      0.0000
@<TRIPOS>BOND
     1     1     2    1
     2     1     3    1
     3     1     5    1
     4     1     6    1
     5     2     7    1
     6     3     4    1
     7     3     8    1
     8     3     9    1
     9     4    10    1

