@<TRIPOS>MOLECULE
DMS_2_A_403
 10 9 0 0 0
SMALL
NO_CHARGES

@<TRIPOS>ATOM
      1 S          -2.3290  -19.0240   -8.0770 S.o    403  DMS403      0.0000
      2 O          -3.6650  -18.6650   -8.7500 O.2    403  DMS403      0.0000
      3 C1         -1.0810  -18.1320   -8.9780 C.3    403  DMS403      0.0000
      4 C2         -1.9430  -20.6380   -8.7400 C.3    403  DMS403      0.0000
      5 H          -0.0737  -18.4818   -8.6728 H      403  DMS403      0.0000
      6 H          -1.1684  -17.0504   -8.7484 H      403  DMS403      0.0000
      7 H          -1.2099  -18.2798  -10.0701 H      403  DMS403      0.0000
      8 H          -0.9120  -20.9267   -8.4502 H      403  DMS403      0.0000
      9 H          -2.0300  -20.6344   -9.8463 H      403  DMS403      0.0000
     10 H          -2.6528  -21.3822   -8.3246 H      403  DMS403      0.0000
@<TRIPOS>BOND
     1     1     2    2
     2     1     3    1
     3     1     4    1
     4     3     5    1
     5     3     6    1
     6     3     7    1
     7     4     8    1
     8     4     9    1
     9     4    10    1

