DMS_2_A_401
  -ISIS-            3D

 10  9  0  0  0  0  0  0  0  0  1 V2000
   -7.0610  -28.1710  -21.2160 S   0  0  0  0  0
   -7.7490  -27.2270  -22.1070 O   0  0  0  0  0
   -5.8490  -28.9480  -22.2600 C   0  0  0  0  0
   -5.9800  -27.2380  -20.2020 C   0  0  0  0  0
   -5.1831  -29.5904  -21.6482 H   0  0  0  0  0
   -5.2419  -28.1823  -22.7853 H   0  0  0  0  0
   -6.3634  -29.5805  -23.0123 H   0  0  0  0  0
   -5.3217  -27.9191  -19.6250 H   0  0  0  0  0
   -6.5753  -26.6305  -19.4900 H   0  0  0  0  0
   -5.3562  -26.5593  -20.8191 H   0  0  0  0  0
  1  2  2  0  0  0
  1  3  1  0  0  0
  1  4  1  0  0  0
  3  5  1  0  0  0
  3  6  1  0  0  0
  3  7  1  0  0  0
  4  8  1  0  0  0
  4  9  1  0  0  0
  4 10  1  0  0  0
M  END
$$$$
