@<TRIPOS>MOLECULE
DMS_1_A_401
 10 9 0 0 0
SMALL
NO_CHARGES

@<TRIPOS>ATOM
      1 S           7.0610  -28.1710   21.2160 S.o    401  DMS401      0.0000
      2 O           7.7490  -27.2270   22.1070 O.2    401  DMS401      0.0000
      3 C1          5.8490  -28.9480   22.2600 C.3    401  DMS401      0.0000
      4 C2          5.9800  -27.2380   20.2020 C.3    401  DMS401      0.0000
      5 H           5.1831  -29.5904   21.6482 H      401  DMS401      0.0000
      6 H           5.2419  -28.1823   22.7853 H      401  DMS401      0.0000
      7 H           6.3634  -29.5805   23.0123 H      401  DMS401      0.0000
      8 H           5.3217  -27.9191   19.6250 H      401  DMS401      0.0000
      9 H           6.5753  -26.6305   19.4900 H      401  DMS401      0.0000
     10 H           5.3562  -26.5593   20.8191 H      401  DMS401      0.0000
@<TRIPOS>BOND
     1     1     2    2
     2     1     3    1
     3     1     4    1
     4     3     5    1
     5     3     6    1
     6     3     7    1
     7     4     8    1
     8     4     9    1
     9     4    10    1

