EDO_1_A_403
  -ISIS-            3D

 10  9  0  0  0  0  0  0  0  0  1 V2000
  -14.5800   -7.4440   39.3680 C   0  0  0  0  0
  -14.0910   -7.4540   38.0200 O   0  0  0  0  0
  -14.2610   -8.7790   40.0310 C   0  0  0  0  0
  -14.4140   -8.6360   41.4480 O   0  0  0  0  0
  -15.6749   -7.2649   39.3571 H   0  0  0  0  0
  -14.1138   -6.6022   39.9231 H   0  0  0  0  0
  -13.1623   -7.2636   38.0366 H   0  0  0  0  0
  -13.2110   -9.0737   39.8251 H   0  0  0  0  0
  -14.9141   -9.5903   39.6469 H   0  0  0  0  0
  -15.3348   -8.7161   41.6592 H   0  0  0  0  0
  1  2  1  0  0  0
  1  3  1  0  0  0
  1  5  1  0  0  0
  1  6  1  0  0  0
  2  7  1  0  0  0
  3  4  1  0  0  0
  3  8  1  0  0  0
  3  9  1  0  0  0
  4 10  1  0  0  0
M  END
$$$$
