@<TRIPOS>MOLECULE
EDO_1_A_401
 10 9 0 0 0
SMALL
NO_CHARGES

@<TRIPOS>ATOM
      1 C1         11.0690   -1.3330   21.3980 C.3    401  EDO401      0.0000
      2 O1         12.2840   -1.3470   20.6320 O.3    401  EDO401      0.0000
      3 C2         10.2430   -2.5520   21.0000 C.3    401  EDO401      0.0000
      4 O2          8.8900   -2.3920   21.4560 O.3    401  EDO401      0.0000
      5 H          10.5099   -0.3986   21.1788 H      401  EDO401      0.0000
      6 H          11.3003   -1.3479   22.4835 H      401  EDO401      0.0000
      7 H          12.7684   -0.5572   20.8325 H      401  EDO401      0.0000
      8 H          10.6885   -3.4836   21.4088 H      401  EDO401      0.0000
      9 H          10.2236   -2.6561   19.8949 H      401  EDO401      0.0000
     10 H           8.7374   -3.0034   22.1643 H      401  EDO401      0.0000
@<TRIPOS>BOND
     1     1     2    1
     2     1     3    1
     3     1     5    1
     4     1     6    1
     5     2     7    1
     6     3     4    1
     7     3     8    1
     8     3     9    1
     9     4    10    1

