@<TRIPOS>MOLECULE
EDO_1_B_405
 10 9 0 0 0
SMALL
NO_CHARGES

@<TRIPOS>ATOM
      1 C1         35.4390  -20.1450   26.7120 C.3    405  EDO405      0.0000
      2 O1         34.1740  -20.4030   27.3410 O.3    405  EDO405      0.0000
      3 C2         35.9230  -21.3610   25.9150 C.3    405  EDO405      0.0000
      4 O2         34.9630  -21.7460   24.9200 O.3    405  EDO405      0.0000
      5 H          36.1904  -19.8570   27.4776 H      405  EDO405      0.0000
      6 H          35.3236  -19.2737   26.0342 H      405  EDO405      0.0000
      7 H          34.3342  -20.8243   28.1750 H      405  EDO405      0.0000
      8 H          36.1067  -22.2196   26.5944 H      405  EDO405      0.0000
      9 H          36.8859  -21.1330   25.4131 H      405  EDO405      0.0000
     10 H          34.1068  -21.6578   25.3232 H      405  EDO405      0.0000
@<TRIPOS>BOND
     1     1     2    1
     2     1     3    1
     3     1     5    1
     4     1     6    1
     5     2     7    1
     6     3     4    1
     7     3     8    1
     8     3     9    1
     9     4    10    1

