@<TRIPOS>MOLECULE
EDO_1_B_402
 10 9 0 0 0
SMALL
NO_CHARGES

@<TRIPOS>ATOM
      1 C1         37.6550   -8.1240   27.7400 C.3    402  EDO402      0.0000
      2 O1         37.4500   -6.7390   27.4200 O.3    402  EDO402      0.0000
      3 C2         39.1530   -8.4160   27.7450 C.3    402  EDO402      0.0000
      4 O2         39.3600   -9.8300   27.6260 O.3    402  EDO402      0.0000
      5 H          37.1482   -8.7355   26.9647 H      402  EDO402      0.0000
      6 H          37.1891   -8.3749   28.7158 H      402  EDO402      0.0000
      7 H          37.5065   -6.2356   28.2214 H      402  EDO402      0.0000
      8 H          39.6242   -8.0397   28.6771 H      402  EDO402      0.0000
      9 H          39.6449   -7.9075   26.8885 H      402  EDO402      0.0000
     10 H          40.2924   -9.9894   27.5601 H      402  EDO402      0.0000
@<TRIPOS>BOND
     1     1     2    1
     2     1     3    1
     3     1     5    1
     4     1     6    1
     5     2     7    1
     6     3     4    1
     7     3     8    1
     8     3     9    1
     9     4    10    1

