EDO_1_A_402
  -ISIS-            3D

 10  9  0  0  0  0  0  0  0  0  1 V2000
   -9.0630    7.4650   46.3000 C   0  0  0  0  0
   -9.0880    7.9830   44.9610 O   0  0  0  0  0
  -10.1950    6.4650   46.5500 C   0  0  0  0  0
  -10.0060    5.9220   47.8750 O   0  0  0  0  0
   -9.1391    8.3072   47.0205 H   0  0  0  0  0
   -8.0820    6.9731   46.4733 H   0  0  0  0  0
   -8.4030    8.6336   44.8821 H   0  0  0  0  0
  -10.1855    5.6526   45.7932 H   0  0  0  0  0
  -11.1825    6.9675   46.4967 H   0  0  0  0  0
   -9.6144    5.0625   47.7925 H   0  0  0  0  0
  1  2  1  0  0  0
  1  3  1  0  0  0
  1  5  1  0  0  0
  1  6  1  0  0  0
  2  7  1  0  0  0
  3  4  1  0  0  0
  3  8  1  0  0  0
  3  9  1  0  0  0
  4 10  1  0  0  0
M  END
$$$$
