@<TRIPOS>MOLECULE
EDO_1_B_406
 10 9 0 0 0
SMALL
NO_CHARGES

@<TRIPOS>ATOM
      1 C1         30.7480    1.6830    5.3830 C.3    406  EDO406      0.0000
      2 O1         29.4050    1.2000    5.4870 O.3    406  EDO406      0.0000
      3 C2         31.7490    0.6260    5.8350 C.3    406  EDO406      0.0000
      4 O2         32.9800    0.8650    5.1280 O.3    406  EDO406      0.0000
      5 H          30.8652    2.6092    5.9842 H      406  EDO406      0.0000
      6 H          30.9391    1.9553    4.3227 H      406  EDO406      0.0000
      7 H          28.8224    1.8745    5.1638 H      406  EDO406      0.0000
      8 H          31.3799   -0.3910    5.5844 H      406  EDO406      0.0000
      9 H          31.9141    0.6714    6.9315 H      406  EDO406      0.0000
     10 H          33.5966    0.1891    5.3765 H      406  EDO406      0.0000
@<TRIPOS>BOND
     1     1     2    1
     2     1     3    1
     3     1     5    1
     4     1     6    1
     5     2     7    1
     6     3     4    1
     7     3     8    1
     8     3     9    1
     9     4    10    1

