@<TRIPOS>MOLECULE
CFF_1_A_402
 24 25 0 0 0
SMALL
NO_CHARGES

@<TRIPOS>ATOM
      1 N1         52.3690  -29.4890   21.3460 N.ar   402  CFF402      0.0000
      2 C2         53.7600  -29.1150   21.3680 C.ar   402  CFF402      0.0000
      3 C10        51.2990  -28.5110   21.2930 C.3    402  CFF402      0.0000
      4 C6         51.9930  -30.8480   21.3760 C.ar   402  CFF402      0.0000
      5 N3         54.7850  -30.1580   21.4230 N.ar   402  CFF402      0.0000
      6 O11        54.0540  -27.9740   21.3380 O.2    402  CFF402      0.0000
      7 C12        56.2050  -29.8010   21.4260 C.3    402  CFF402      0.0000
      8 C4         54.3900  -31.5930   21.4450 C.ar   402  CFF402      0.0000
      9 C5         53.0490  -31.9360   21.4120 C.ar   402  CFF402      0.0000
     10 N9         55.1140  -32.7470   21.4930 N.ar   402  CFF402      0.0000
     11 O13        50.8310  -31.0930   21.3630 O.2    402  CFF402      0.0000
     12 N7         52.9880  -33.2930   21.4670 N.ar   402  CFF402      0.0000
     13 C8         54.2470  -33.7640   21.5050 C.ar   402  CFF402      0.0000
     14 C14        51.7960  -34.1170   21.4580 C.3    402  CFF402      0.0000
     15 H          50.6899  -28.6203   20.3678 H      402  CFF402      0.0000
     16 H          51.6771  -27.4657   21.3012 H      402  CFF402      0.0000
     17 H          50.6130  -28.6043   22.1646 H      402  CFF402      0.0000
     18 H          56.7133  -30.1915   22.3355 H      402  CFF402      0.0000
     19 H          56.3743  -28.7028   21.4045 H      402  CFF402      0.0000
     20 H          56.7270  -30.2293   20.5417 H      402  CFF402      0.0000
     21 H          54.4597  -34.8398   21.5397 H      402  CFF402      0.0000
     22 H          52.0236  -35.2002   21.5633 H      402  CFF402      0.0000
     23 H          51.2313  -33.9908   20.5080 H      402  CFF402      0.0000
     24 H          51.1141  -33.8445   22.2933 H      402  CFF402      0.0000
@<TRIPOS>BOND
     1     1     2   ar
     2     1     3    1
     3     1     4   ar
     4     2     5   ar
     5     2     6    2
     6     3    15    1
     7     3    16    1
     8     3    17    1
     9     4     9   ar
    10     4    11    2
    11     5     7    1
    12     5     8   ar
    13     7    18    1
    14     7    19    1
    15     7    20    1
    16     8     9   ar
    17     8    10   ar
    18     9    12   ar
    19    10    13   ar
    20    12    13   ar
    21    12    14    1
    22    13    21    1
    23    14    22    1
    24    14    23    1
    25    14    24    1

