CFF_1_A_402
  -ISIS-            3D

 24 25  0  0  0  0  0  0  0  0  1 V2000
   52.3690  -29.4890   21.3460 N   0  0  0  0  0
   53.7600  -29.1150   21.3680 C   0  0  0  0  0
   51.2990  -28.5110   21.2930 C   0  0  0  0  0
   51.9930  -30.8480   21.3760 C   0  0  0  0  0
   54.7850  -30.1580   21.4230 N   0  0  0  0  0
   54.0540  -27.9740   21.3380 O   0  0  0  0  0
   56.2050  -29.8010   21.4260 C   0  0  0  0  0
   54.3900  -31.5930   21.4450 C   0  0  0  0  0
   53.0490  -31.9360   21.4120 C   0  0  0  0  0
   55.1140  -32.7470   21.4930 N   0  0  0  0  0
   50.8310  -31.0930   21.3630 O   0  0  0  0  0
   52.9880  -33.2930   21.4670 N   0  0  0  0  0
   54.2470  -33.7640   21.5050 C   0  0  0  0  0
   51.7960  -34.1170   21.4580 C   0  0  0  0  0
   50.6899  -28.6203   20.3678 H   0  0  0  0  0
   51.6771  -27.4657   21.3012 H   0  0  0  0  0
   50.6130  -28.6043   22.1646 H   0  0  0  0  0
   56.7133  -30.1915   22.3355 H   0  0  0  0  0
   56.3743  -28.7028   21.4045 H   0  0  0  0  0
   56.7270  -30.2293   20.5417 H   0  0  0  0  0
   54.4597  -34.8398   21.5397 H   0  0  0  0  0
   52.0236  -35.2002   21.5633 H   0  0  0  0  0
   51.2313  -33.9908   20.5080 H   0  0  0  0  0
   51.1141  -33.8445   22.2933 H   0  0  0  0  0
  1  2  1  0  0  0
  1  3  1  0  0  0
  1  4  1  0  0  0
  2  5  1  0  0  0
  2  6  2  0  0  0
  3 15  1  0  0  0
  3 16  1  0  0  0
  3 17  1  0  0  0
  4  9  1  0  0  0
  4 11  2  0  0  0
  5  7  1  0  0  0
  5  8  1  0  0  0
  7 18  1  0  0  0
  7 19  1  0  0  0
  7 20  1  0  0  0
  8  9  2  0  0  0
  8 10  1  0  0  0
  9 12  1  0  0  0
 10 13  2  0  0  0
 12 13  1  0  0  0
 12 14  1  0  0  0
 13 21  1  0  0  0
 14 22  1  0  0  0
 14 23  1  0  0  0
 14 24  1  0  0  0
M  END
$$$$
