@<TRIPOS>MOLECULE
EDO_1_A_401
 10 9 0 0 0
SMALL
NO_CHARGES

@<TRIPOS>ATOM
      1 C1          8.7190  -10.9050    2.3120 C.3    401  EDO401      0.0000
      2 O1          8.1270  -12.2100    2.2420 O.3    401  EDO401      0.0000
      3 C2          8.0540   -9.9800    1.2970 C.3    401  EDO401      0.0000
      4 O2          6.6720   -9.8080    1.6310 O.3    401  EDO401      0.0000
      5 H           9.8065  -10.9863    2.1033 H      401  EDO401      0.0000
      6 H           8.6059  -10.4926    3.3371 H      401  EDO401      0.0000
      7 H           8.3699  -12.6896    3.0233 H      401  EDO401      0.0000
      8 H           8.1453  -10.4038    0.2744 H      401  EDO401      0.0000
      9 H           8.5560   -8.9895    1.2943 H      401  EDO401      0.0000
     10 H           6.2417   -9.3756    0.9053 H      401  EDO401      0.0000
@<TRIPOS>BOND
     1     1     2    1
     2     1     3    1
     3     1     5    1
     4     1     6    1
     5     2     7    1
     6     3     4    1
     7     3     8    1
     8     3     9    1
     9     4    10    1

