@<TRIPOS>MOLECULE
FMT_1_A_403
 3 2 0 0 0
SMALL
NO_CHARGES

@<TRIPOS>ATOM
      1 C         -14.1180  112.4360   29.7970 C.2    403  FMT403      0.0000
      2 O1        -13.7670  111.2930   30.1340 O.2    403  FMT403      0.0000
      3 O2        -13.3590  113.3960   29.5850 O.2    403  FMT403     -0.5000
@<TRIPOS>BOND
     1     1     2   ar
     2     1     3   ar

