@<TRIPOS>MOLECULE
FMT_2_A_403
 3 2 0 0 0
SMALL
NO_CHARGES

@<TRIPOS>ATOM
      1 C         -14.9030   62.1700   29.7970 C.2    403  FMT403      0.0000
      2 O1        -14.0890   63.0450   30.1340 O.2    403  FMT403      0.0000
      3 O2        -16.1150   62.3470   29.5850 O.2    403  FMT403     -0.5000
@<TRIPOS>BOND
     1     1     2   ar
     2     1     3   ar

