@<TRIPOS>MOLECULE
FMT_2_A_404
 3 2 0 0 0
SMALL
NO_CHARGES

@<TRIPOS>ATOM
      1 C          -3.1850   40.8350   19.7070 C.2    404  FMT404      0.0000
      2 O1         -3.1910   39.6050   19.6060 O.2    404  FMT404      0.0000
      3 O2         -2.4960   41.5840   19.0070 O.2    404  FMT404     -0.5000
@<TRIPOS>BOND
     1     1     2   ar
     2     1     3   ar

