@<TRIPOS>MOLECULE
FMT_3_A_404
 3 2 0 0 0
SMALL
NO_CHARGES

@<TRIPOS>ATOM
      1 C          41.6380  107.4380   19.7070 C.2    404  FMT404      0.0000
      2 O1         42.7070  108.0480   19.6060 O.2    404  FMT404      0.0000
      3 O2         40.6450  107.6600   19.0070 O.2    404  FMT404     -0.5000
@<TRIPOS>BOND
     1     1     2   ar
     2     1     3   ar

