@<TRIPOS>MOLECULE
DMS_1_A_401
 10 9 0 0 0
SMALL
NO_CHARGES

@<TRIPOS>ATOM
      1 S           6.9500   -1.4560   -6.0650 S.o    401  DMS401      0.0000
      2 O           6.1910   -0.3030   -6.6280 O.2    401  DMS401      0.0000
      3 C1          5.8270   -2.8650   -5.8410 C.3    401  DMS401      0.0000
      4 C2          7.4490   -1.1250   -4.3470 C.3    401  DMS401      0.0000
      5 H           6.3810   -3.7113   -5.3859 H      401  DMS401      0.0000
      6 H           5.4293   -3.1765   -6.8285 H      401  DMS401      0.0000
      7 H           4.9853   -2.5724   -5.1804 H      401  DMS401      0.0000
      8 H           7.9650   -2.0154   -3.9335 H      401  DMS401      0.0000
      9 H           6.5532   -0.8949   -3.7346 H      401  DMS401      0.0000
     10 H           8.1410   -0.2584   -4.3283 H      401  DMS401      0.0000
@<TRIPOS>BOND
     1     1     2    2
     2     1     3    1
     3     1     4    1
     4     3     5    1
     5     3     6    1
     6     3     7    1
     7     4     8    1
     8     4     9    1
     9     4    10    1

