@<TRIPOS>MOLECULE
Q6T_1_A_201
 17 18 0 0 0
SMALL
NO_CHARGES

@<TRIPOS>ATOM
      1 OAA       -43.6580  -29.5460    2.2460 O.co2  201  Q6T201     -0.5000
      2 C10       -44.8850  -29.6150    2.1590 C.2    201  Q6T201      0.0000
      3 OAB       -45.4110  -29.9500    1.0760 O.co2  201  Q6T201     -0.5000
      4 CAD       -45.7410  -29.3040    3.3960 C.ar   201  Q6T201      0.0000
      5 CAK       -45.2030  -29.4420    4.6830 C.ar   201  Q6T201      0.0000
      6 CAL       -45.9640  -29.1430    5.7740 C.ar   201  Q6T201      0.0000
      7 OAH       -45.2120  -29.3970    6.9270 O.3    201  Q6T201      0.0000
      8 CAF       -43.8870  -29.5190    6.4870 C.3    201  Q6T201      0.0000
      9 OAG       -43.9330  -29.8500    5.1410 O.3    201  Q6T201      0.0000
     10 CAE       -47.2810  -28.7230    5.6300 C.ar   201  Q6T201      0.0000
     11 CAJ       -47.8160  -28.5930    4.3730 C.ar   201  Q6T201      0.0000
     12 CAC       -47.0460  -28.8850    3.2650 C.ar   201  Q6T201      0.0000
     13 H         -43.3534  -30.2970    7.0643 H      201  Q6T201      0.0000
     14 H         -43.3539  -28.5573    6.6226 H      201  Q6T201      0.0000
     15 H         -47.8876  -28.5046    6.5242 H      201  Q6T201      0.0000
     16 H         -48.8599  -28.2586    4.2486 H      201  Q6T201      0.0000
     17 H         -47.4916  -28.7754    2.2616 H      201  Q6T201      0.0000
@<TRIPOS>BOND
     1     1     2   ar
     2     2     3   ar
     3     2     4    1
     4     4     5   ar
     5     4    12   ar
     6     5     6   ar
     7     5     9    1
     8     6     7    1
     9     6    10   ar
    10     7     8    1
    11     8     9    1
    12     8    13    1
    13     8    14    1
    14    10    11   ar
    15    10    15    1
    16    11    12   ar
    17    11    16    1
    18    12    17    1

