DMS_1_A_404
  -ISIS-            3D

 10  9  0  0  0  0  0  0  0  0  1 V2000
    2.3630  -19.0360    8.3190 S   0  0  0  0  0
    2.3000  -20.5080    8.0530 O   0  0  0  0  0
    3.9880  -18.5810    8.9860 C   0  0  0  0  0
    1.3140  -18.6500    9.7480 C   0  0  0  0  0
    3.9952  -17.5018    9.2418 H   0  0  0  0  0
    4.7653  -18.7802    8.2202 H   0  0  0  0  0
    4.2038  -19.1813    9.8936 H   0  0  0  0  0
    1.3961  -17.5702    9.9877 H   0  0  0  0  0
    1.6337  -19.2518   10.6234 H   0  0  0  0  0
    0.2594  -18.8901    9.5022 H   0  0  0  0  0
  1  2  2  0  0  0
  1  3  1  0  0  0
  1  4  1  0  0  0
  3  5  1  0  0  0
  3  6  1  0  0  0
  3  7  1  0  0  0
  4  8  1  0  0  0
  4  9  1  0  0  0
  4 10  1  0  0  0
M  END
$$$$
