DMS_2_A_403
  -ISIS-            3D

 10  9  0  0  0  0  0  0  0  0  1 V2000
   -6.3900   -1.0120    6.3590 S   0  0  0  0  0
   -7.2080   -0.8930    7.6040 O   0  0  0  0  0
   -7.4680   -0.8200    4.9120 C   0  0  0  0  0
   -5.8270   -2.7240    6.1360 C   0  0  0  0  0
   -6.8735   -0.9584    3.9861 H   0  0  0  0  0
   -7.9065    0.1987    4.9159 H   0  0  0  0  0
   -8.2831   -1.5718    4.9479 H   0  0  0  0  0
   -5.2734   -2.8102    5.1790 H   0  0  0  0  0
   -6.7003   -3.4084    6.1252 H   0  0  0  0  0
   -5.1543   -2.9989    6.9739 H   0  0  0  0  0
  1  2  2  0  0  0
  1  3  1  0  0  0
  1  4  1  0  0  0
  3  5  1  0  0  0
  3  6  1  0  0  0
  3  7  1  0  0  0
  4  8  1  0  0  0
  4  9  1  0  0  0
  4 10  1  0  0  0
M  END
$$$$
