DMS_1_A_406
  -ISIS-            3D

 10  9  0  0  0  0  0  0  0  0  1 V2000
   20.6010  -16.1650    5.5670 S   0  0  0  0  0
   20.7930  -15.1850    4.4540 O   0  0  0  0  0
   20.8330  -17.8530    4.9430 C   0  0  0  0  0
   22.0140  -16.0540    6.6990 C   0  0  0  0  0
   20.7635  -18.5725    5.7843 H   0  0  0  0  0
   21.8262  -17.9419    4.4570 H   0  0  0  0  0
   20.0396  -18.0801    4.2019 H   0  0  0  0  0
   21.9152  -16.8228    7.4923 H   0  0  0  0  0
   22.0295  -15.0479    7.1658 H   0  0  0  0  0
   22.9586  -16.2142    6.1398 H   0  0  0  0  0
  1  2  2  0  0  0
  1  3  1  0  0  0
  1  4  1  0  0  0
  3  5  1  0  0  0
  3  6  1  0  0  0
  3  7  1  0  0  0
  4  8  1  0  0  0
  4  9  1  0  0  0
  4 10  1  0  0  0
M  END
$$$$
