@<TRIPOS>MOLECULE
DMS_1_A_403
 10 9 0 0 0
SMALL
NO_CHARGES

@<TRIPOS>ATOM
      1 S           6.3900   -1.0120   -6.3590 S.o    403  DMS403      0.0000
      2 O           7.2080   -0.8930   -7.6040 O.2    403  DMS403      0.0000
      3 C1          7.4680   -0.8200   -4.9120 C.3    403  DMS403      0.0000
      4 C2          5.8270   -2.7240   -6.1360 C.3    403  DMS403      0.0000
      5 H           6.8735   -0.9584   -3.9861 H      403  DMS403      0.0000
      6 H           7.9065    0.1987   -4.9159 H      403  DMS403      0.0000
      7 H           8.2831   -1.5718   -4.9479 H      403  DMS403      0.0000
      8 H           5.2734   -2.8102   -5.1790 H      403  DMS403      0.0000
      9 H           6.7003   -3.4084   -6.1252 H      403  DMS403      0.0000
     10 H           5.1543   -2.9989   -6.9739 H      403  DMS403      0.0000
@<TRIPOS>BOND
     1     1     2    2
     2     1     3    1
     3     1     4    1
     4     3     5    1
     5     3     6    1
     6     3     7    1
     7     4     8    1
     8     4     9    1
     9     4    10    1

