@<TRIPOS>MOLECULE
DMS_1_A_402
 10 9 0 0 0
SMALL
NO_CHARGES

@<TRIPOS>ATOM
      1 S           7.0040  -28.2450   21.6640 S.o    402  DMS402      0.0000
      2 O           8.0050  -27.3430   22.3090 O.2    402  DMS402      0.0000
      3 C1          6.0170  -27.2970   20.4740 C.3    402  DMS402      0.0000
      4 C2          5.7240  -28.6740   22.8750 C.3    402  DMS402      0.0000
      5 H           5.2264  -27.9469   20.0465 H      402  DMS402      0.0000
      6 H           6.6756  -26.9375   19.6571 H      402  DMS402      0.0000
      7 H           5.5508  -26.4270   20.9802 H      402  DMS402      0.0000
      8 H           4.9403  -29.2872   22.3850 H      402  DMS402      0.0000
      9 H           5.2703  -27.7493   23.2867 H      402  DMS402      0.0000
     10 H           6.1819  -29.2574   23.6998 H      402  DMS402      0.0000
@<TRIPOS>BOND
     1     1     2    2
     2     1     3    1
     3     1     4    1
     4     3     5    1
     5     3     6    1
     6     3     7    1
     7     4     8    1
     8     4     9    1
     9     4    10    1

