@<TRIPOS>MOLECULE
DMS_1_B_803
 10 9 0 0 0
SMALL
NO_CHARGES

@<TRIPOS>ATOM
      1 S          24.4860   42.4060   -5.0690 S.o    803  DMS803      0.0000
      2 O          25.2540   41.1620   -4.9630 O.2    803  DMS803      0.0000
      3 C1         23.2540   42.7810   -3.8730 C.3    803  DMS803      0.0000
      4 C2         24.8190   43.5250   -6.3810 C.3    803  DMS803      0.0000
      5 H          22.7792   43.7533   -4.1155 H      803  DMS803      0.0000
      6 H          23.7185   42.8413   -2.8677 H      803  DMS803      0.0000
      7 H          22.4809   41.9859   -3.8744 H      803  DMS803      0.0000
      8 H          24.1459   44.4029   -6.3056 H      803  DMS803      0.0000
      9 H          24.6514   43.0182   -7.3531 H      803  DMS803      0.0000
     10 H          25.8727   43.8657   -6.3203 H      803  DMS803      0.0000
@<TRIPOS>BOND
     1     1     2    2
     2     1     3    1
     3     1     4    1
     4     3     5    1
     5     3     6    1
     6     3     7    1
     7     4     8    1
     8     4     9    1
     9     4    10    1

