@<TRIPOS>MOLECULE
DMS_1_B_801
 10 9 0 0 0
SMALL
NO_CHARGES

@<TRIPOS>ATOM
      1 S          23.6450   56.4160  -25.4350 S.o    801  DMS801      0.0000
      2 O          23.9850   57.8500  -25.4080 O.2    801  DMS801      0.0000
      3 C1         22.0140   55.8870  -25.7810 C.3    801  DMS801      0.0000
      4 C2         24.8670   55.2310  -25.1800 C.3    801  DMS801      0.0000
      5 H          21.6410   55.2603  -24.9455 H      801  DMS801      0.0000
      6 H          22.0064   55.2933  -26.7177 H      801  DMS801      0.0000
      7 H          21.3515   56.7683  -25.9010 H      801  DMS801      0.0000
      8 H          24.5857   54.5810  -24.3267 H      801  DMS801      0.0000
      9 H          25.8332   55.7269  -24.9555 H      801  DMS801      0.0000
     10 H          24.9809   54.6089  -26.0910 H      801  DMS801      0.0000
@<TRIPOS>BOND
     1     1     2    2
     2     1     3    1
     3     1     4    1
     4     3     5    1
     5     3     6    1
     6     3     7    1
     7     4     8    1
     8     4     9    1
     9     4    10    1

