DMS_1_A_804
  -ISIS-            3D

 10  9  0  0  0  0  0  0  0  0  1 V2000
   11.8210   33.3200    3.7860 S   0  0  0  0  0
   11.2090   33.7470    2.5220 O   0  0  0  0  0
   12.4840   31.6970    3.9350 C   0  0  0  0  0
   11.9040   34.4210    5.1530 C   0  0  0  0  0
   12.9001   31.5531    4.9527 H   0  0  0  0  0
   13.2901   31.5553    3.1867 H   0  0  0  0  0
   11.6825   30.9511    3.7586 H   0  0  0  0  0
   12.3963   33.9191    6.0105 H   0  0  0  0  0
   10.8790   34.7258    5.4469 H   0  0  0  0  0
   12.4887   35.3201    4.8706 H   0  0  0  0  0
  1  2  2  0  0  0
  1  3  1  0  0  0
  1  4  1  0  0  0
  3  5  1  0  0  0
  3  6  1  0  0  0
  3  7  1  0  0  0
  4  8  1  0  0  0
  4  9  1  0  0  0
  4 10  1  0  0  0
M  END
$$$$
