@<TRIPOS>MOLECULE
DMS_1_A_804
 10 9 0 0 0
SMALL
NO_CHARGES

@<TRIPOS>ATOM
      1 S          11.8210   33.3200    3.7860 S.o    804  DMS804      0.0000
      2 O          11.2090   33.7470    2.5220 O.2    804  DMS804      0.0000
      3 C1         12.4840   31.6970    3.9350 C.3    804  DMS804      0.0000
      4 C2         11.9040   34.4210    5.1530 C.3    804  DMS804      0.0000
      5 H          12.9001   31.5531    4.9527 H      804  DMS804      0.0000
      6 H          13.2901   31.5553    3.1867 H      804  DMS804      0.0000
      7 H          11.6825   30.9511    3.7586 H      804  DMS804      0.0000
      8 H          12.3963   33.9191    6.0105 H      804  DMS804      0.0000
      9 H          10.8790   34.7258    5.4469 H      804  DMS804      0.0000
     10 H          12.4887   35.3201    4.8706 H      804  DMS804      0.0000
@<TRIPOS>BOND
     1     1     2    2
     2     1     3    1
     3     1     4    1
     4     3     5    1
     5     3     6    1
     6     3     7    1
     7     4     8    1
     8     4     9    1
     9     4    10    1

