@<TRIPOS>MOLECULE
DTZ_1_B_901
 3 2 0 0 0
SMALL
NO_CHARGES

@<TRIPOS>ATOM
      1 S1         24.9470   64.0040  -24.9010 S.3    901  DTZ901      0.0000
      2 ZN         26.2540   62.1100  -24.7500 Zn     901  DTZ901      2.0000
      3 S2         26.2870   61.0990  -26.8180 S.3    901  DTZ901      0.0000
@<TRIPOS>BOND
     1     1     2    1
     2     2     3    1

