@<TRIPOS>MOLECULE
DTZ_1_A_902
 3 2 0 0 0
SMALL
NO_CHARGES

@<TRIPOS>ATOM
      1 S1          9.8550   35.9750   10.2930 S.3    902  DTZ902      0.0000
      2 ZN          8.7840   35.2470    8.3780 Zn     902  DTZ902      2.0000
      3 S2          9.0460   32.9550    8.3150 S.3    902  DTZ902      0.0000
@<TRIPOS>BOND
     1     1     2    1
     2     2     3    1

