@<TRIPOS>MOLECULE
DMS_2_A_401
 10 9 0 0 0
SMALL
NO_CHARGES

@<TRIPOS>ATOM
      1 S          -6.8820  -28.1250  -21.4720 S.o    401  DMS401      0.0000
      2 O          -7.6740  -27.2060  -22.3160 O.2    401  DMS401      0.0000
      3 C1         -5.9550  -27.1380  -20.3700 C.3    401  DMS401      0.0000
      4 C2         -5.5810  -28.7520  -22.4970 C.3    401  DMS401      0.0000
      5 H          -5.2510  -27.7736  -19.7950 H      401  DMS401      0.0000
      6 H          -6.6408  -26.6328  -19.6595 H      401  DMS401      0.0000
      7 H          -5.3823  -26.3683  -20.9270 H      401  DMS401      0.0000
      8 H          -4.8825  -29.3604  -21.8870 H      401  DMS401      0.0000
      9 H          -5.0254  -27.9158  -22.9691 H      401  DMS401      0.0000
     10 H          -6.0149  -29.3929  -23.2916 H      401  DMS401      0.0000
@<TRIPOS>BOND
     1     1     2    2
     2     1     3    1
     3     1     4    1
     4     3     5    1
     5     3     6    1
     6     3     7    1
     7     4     8    1
     8     4     9    1
     9     4    10    1

