DMS_2_A_403
  -ISIS-            3D

 10  9  0  0  0  0  0  0  0  0  1 V2000
   -6.2610   -1.0760    6.3230 S   0  0  0  0  0
   -5.9580   -2.5330    6.3600 O   0  0  0  0  0
   -7.0220   -0.7250    7.8580 C   0  0  0  0  0
   -7.5960   -0.8940    5.1750 C   0  0  0  0  0
   -7.3962    0.3191    7.8611 H   0  0  0  0  0
   -6.2821   -0.8433    8.6759 H   0  0  0  0  0
   -7.8707   -1.4174    8.0343 H   0  0  0  0  0
   -7.9640    0.1522    5.1928 H   0  0  0  0  0
   -8.4262   -1.5798    5.4416 H   0  0  0  0  0
   -7.2401   -1.1339    4.1522 H   0  0  0  0  0
  1  2  2  0  0  0
  1  3  1  0  0  0
  1  4  1  0  0  0
  3  5  1  0  0  0
  3  6  1  0  0  0
  3  7  1  0  0  0
  4  8  1  0  0  0
  4  9  1  0  0  0
  4 10  1  0  0  0
M  END
$$$$
