@<TRIPOS>MOLECULE
DMS_2_A_402
 10 9 0 0 0
SMALL
NO_CHARGES

@<TRIPOS>ATOM
      1 S          -7.0440  -21.2560  -28.8470 S.o    402  DMS402      0.0000
      2 O          -6.9220  -22.7170  -28.6880 O.2    402  DMS402      0.0000
      3 C1         -5.3900  -20.7290  -29.2060 C.3    402  DMS402      0.0000
      4 C2         -7.7320  -21.0500  -30.4630 C.3    402  DMS402      0.0000
      5 H          -5.3945  -19.6648  -29.5188 H      402  DMS402      0.0000
      6 H          -4.9511  -21.3485  -30.0152 H      402  DMS402      0.0000
      7 H          -4.7657  -20.8306  -28.2947 H      402  DMS402      0.0000
      8 H          -7.6971  -19.9799  -30.7527 H      402  DMS402      0.0000
      9 H          -8.7898  -21.3839  -30.4578 H      402  DMS402      0.0000
     10 H          -7.1679  -21.6508  -31.2060 H      402  DMS402      0.0000
@<TRIPOS>BOND
     1     1     2    2
     2     1     3    1
     3     1     4    1
     4     3     5    1
     5     3     6    1
     6     3     7    1
     7     4     8    1
     8     4     9    1
     9     4    10    1

