@<TRIPOS>MOLECULE
DMS_2_A_404
 10 9 0 0 0
SMALL
NO_CHARGES

@<TRIPOS>ATOM
      1 S          -2.3710  -18.8550   -7.9840 S.o    404  DMS404      0.0000
      2 O          -1.9750  -20.2010   -7.5460 O.2    404  DMS404      0.0000
      3 C1         -3.6280  -19.1600   -9.1960 C.3    404  DMS404      0.0000
      4 C2         -1.0580  -18.3330   -9.0620 C.3    404  DMS404      0.0000
      5 H          -3.8818  -18.2150   -9.7183 H      404  DMS404      0.0000
      6 H          -4.5382  -19.5468   -8.6935 H      404  DMS404      0.0000
      7 H          -3.2785  -19.9074   -9.9377 H      404  DMS404      0.0000
      8 H          -1.3506  -17.3985   -9.5829 H      404  DMS404      0.0000
      9 H          -0.8378  -19.1196   -9.8128 H      404  DMS404      0.0000
     10 H          -0.1453  -18.1386   -8.4624 H      404  DMS404      0.0000
@<TRIPOS>BOND
     1     1     2    2
     2     1     3    1
     3     1     4    1
     4     3     5    1
     5     3     6    1
     6     3     7    1
     7     4     8    1
     8     4     9    1
     9     4    10    1

