0EN_1_A_401
  -ISIS-            3D

 63 65  0  0  0  0  0  0  0  0  1 V2000
   21.8260  -28.7010    0.2550 O   0  0  0  0  0
   22.6250  -28.7910   -0.6720 C   0  0  0  0  0
   23.1410  -30.1820   -0.9540 C   0  0  0  0  0
   24.1440  -30.7260   -1.7450 C   0  0  0  0  0
   24.1090  -32.0950   -1.5550 C   0  0  0  0  0
   23.0990  -32.3750   -0.6530 C   0  0  0  0  0
   22.5020  -31.1870   -0.2740 O   0  0  0  0  0
   23.0070  -27.7030   -1.3980 N   0  0  0  0  0
   23.9600  -27.8610   -2.4390 C   0  0  0  0  0
   23.5670  -28.2490   -3.7250 C   0  0  0  0  0
   24.5200  -28.4050   -4.7340 C   0  0  0  0  0
   25.8800  -28.1720   -4.4850 C   0  0  0  0  0
   26.9060  -28.3430   -5.5980 C   0  0  0  0  0
   27.8040  -27.1130   -5.6660 C   0  0  0  0  0
   26.2250  -28.5120   -6.9550 C   0  0  0  0  0
   27.7660  -29.5840   -5.3440 C   0  0  0  0  0
   26.2700  -27.7800   -3.1940 C   0  0  0  0  0
   25.3220  -27.6300   -2.1780 C   0  0  0  0  0
   22.5400  -26.3240   -1.0950 C   0  0  0  0  0
   23.1050  -25.3000   -2.0580 C   0  0  0  0  0
   24.0530  -24.5110   -1.5220 N   0  0  0  0  0
   24.8250  -23.4290   -2.1480 C   0  0  0  0  0
   24.7860  -23.4420   -3.6720 C   0  0  0  0  0
   26.2950  -23.5120   -1.7450 C   0  0  0  0  0
   24.2860  -22.1040   -1.6220 C   0  0  0  0  0
   22.7010  -25.2600   -3.2250 O   0  0  0  0  0
   21.0680  -26.0740   -0.9730 C   0  0  0  0  0
   20.5990  -25.3210    0.1060 C   0  0  0  0  0
   19.2270  -25.0520    0.2290 C   0  0  0  0  0
   18.3800  -25.5530   -0.7530 C   0  0  0  0  0
   18.8480  -26.2460   -1.7870 N   0  0  0  0  0
   20.1560  -26.5290   -1.9260 C   0  0  0  0  0
   24.8511  -30.2154   -2.4041 H   0  0  0  0  0
   24.7663  -32.8316   -2.0332 H   0  0  0  0  0
   22.6838  -33.2714   -0.1901 H   0  0  0  0  0
   22.5015  -28.4324   -3.9416 H   0  0  0  0  0
   24.1504  -28.7162   -5.7221 H   0  0  0  0  0
   28.5190  -27.1679   -6.5172 H   0  0  0  0  0
   28.4223  -26.9755   -4.7526 H   0  0  0  0  0
   27.2138  -26.1788   -5.8025 H   0  0  0  0  0
   26.9720  -28.5676   -7.7786 H   0  0  0  0  0
   25.5561  -27.6578   -7.2049 H   0  0  0  0  0
   25.6307  -29.4498   -7.0281 H   0  0  0  0  0
   28.5181  -29.7444   -6.1486 H   0  0  0  0  0
   27.1478  -30.5079   -5.2860 H   0  0  0  0  0
   28.3285  -29.5135   -4.3865 H   0  0  0  0  0
   27.3299  -27.5921   -2.9585 H   0  0  0  0  0
   25.6457  -27.3293   -1.1675 H   0  0  0  0  0
   22.9558  -26.0851   -0.0859 H   0  0  0  0  0
   24.2866  -24.6683   -0.5314 H   0  0  0  0  0
   25.4420  -22.6566   -4.1097 H   0  0  0  0  0
   23.7661  -23.2460   -4.0697 H   0  0  0  0  0
   25.1299  -24.4154   -4.0892 H   0  0  0  0  0
   26.9022  -22.6862   -2.1788 H   0  0  0  0  0
   26.7563  -24.4679   -2.0816 H   0  0  0  0  0
   26.4277  -23.4643   -0.6408 H   0  0  0  0  0
   24.8357  -21.2313   -2.0403 H   0  0  0  0  0
   24.3574  -22.0344   -0.5133 H   0  0  0  0  0
   23.2128  -21.9677   -1.8850 H   0  0  0  0  0
   21.2893  -24.9297    0.8725 H   0  0  0  0  0
   18.8353  -24.4658    1.0765 H   0  0  0  0  0
   17.2940  -25.3697   -0.6960 H   0  0  0  0  0
   20.4825  -27.1120   -2.8020 H   0  0  0  0  0
  1  2  2  0  0  0
  2  3  1  0  0  0
  2  8  1  0  0  0
  3  4  2  0  0  0
  3  7  1  0  0  0
  4  5  1  0  0  0
  4 33  1  0  0  0
  5  6  2  0  0  0
  5 34  1  0  0  0
  6  7  1  0  0  0
  6 35  1  0  0  0
  8  9  1  0  0  0
  8 19  1  0  0  0
  9 10  2  0  0  0
  9 18  1  0  0  0
 10 11  1  0  0  0
 10 36  1  0  0  0
 11 12  2  0  0  0
 11 37  1  0  0  0
 12 13  1  0  0  0
 12 17  1  0  0  0
 13 14  1  0  0  0
 13 15  1  0  0  0
 13 16  1  0  0  0
 14 38  1  0  0  0
 14 39  1  0  0  0
 14 40  1  0  0  0
 15 41  1  0  0  0
 15 42  1  0  0  0
 15 43  1  0  0  0
 16 44  1  0  0  0
 16 45  1  0  0  0
 16 46  1  0  0  0
 17 18  2  0  0  0
 17 47  1  0  0  0
 18 48  1  0  0  0
 19 20  1  0  0  0
 19 27  1  0  0  0
 19 49  1  0  0  0
 20 21  1  0  0  0
 20 26  2  0  0  0
 21 22  1  0  0  0
 21 50  1  0  0  0
 22 23  1  0  0  0
 22 24  1  0  0  0
 22 25  1  0  0  0
 23 51  1  0  0  0
 23 52  1  0  0  0
 23 53  1  0  0  0
 24 54  1  0  0  0
 24 55  1  0  0  0
 24 56  1  0  0  0
 25 57  1  0  0  0
 25 58  1  0  0  0
 25 59  1  0  0  0
 27 28  2  0  0  0
 27 32  1  0  0  0
 28 29  1  0  0  0
 28 60  1  0  0  0
 29 30  2  0  0  0
 29 61  1  0  0  0
 30 31  1  0  0  0
 30 62  1  0  0  0
 31 32  2  0  0  0
 32 63  1  0  0  0
M  END
$$$$
