@<TRIPOS>MOLECULE
DMS_2_A_402
 10 9 0 0 0
SMALL
NO_CHARGES

@<TRIPOS>ATOM
      1 S         -31.9720  -37.6030    1.7460 S.o    402  DMS402      0.0000
      2 O         -30.5500  -37.9410    2.0060 O.2    402  DMS402      0.0000
      3 C1        -32.0770  -36.0710    0.9900 C.3    402  DMS402      0.0000
      4 C2        -32.6050  -38.6050    0.5160 C.3    402  DMS402      0.0000
      5 H         -33.1341  -35.8320    0.7540 H      402  DMS402      0.0000
      6 H         -31.4816  -36.0556    0.0541 H      402  DMS402      0.0000
      7 H         -31.6842  -35.2913    1.6741 H      402  DMS402      0.0000
      8 H         -33.6527  -38.3194    0.2902 H      402  DMS402      0.0000
      9 H         -32.5935  -39.6613    0.8543 H      402  DMS402      0.0000
     10 H         -31.9969  -38.5213   -0.4080 H      402  DMS402      0.0000
@<TRIPOS>BOND
     1     1     2    2
     2     1     3    1
     3     1     4    1
     4     3     5    1
     5     3     6    1
     6     3     7    1
     7     4     8    1
     8     4     9    1
     9     4    10    1

