@<TRIPOS>MOLECULE
DMS_1_A_403
 10 9 0 0 0
SMALL
NO_CHARGES

@<TRIPOS>ATOM
      1 S          24.3340  -31.5900  -19.3780 S.o    403  DMS403      0.0000
      2 O          25.0940  -30.4450  -18.8200 O.2    403  DMS403      0.0000
      3 C1         22.6790  -31.2020  -19.4030 C.3    403  DMS403      0.0000
      4 C2         24.6090  -31.6530  -21.0620 C.3    403  DMS403      0.0000
      5 H          22.1008  -32.0097  -19.8965 H      403  DMS403      0.0000
      6 H          22.5043  -30.2476  -19.9409 H      403  DMS403      0.0000
      7 H          22.3081  -31.0932  -18.3633 H      403  DMS403      0.0000
      8 H          23.9909  -32.4500  -21.5237 H      403  DMS403      0.0000
      9 H          25.6768  -31.8839  -21.2545 H      403  DMS403      0.0000
     10 H          24.3667  -30.6810  -21.5386 H      403  DMS403      0.0000
@<TRIPOS>BOND
     1     1     2    2
     2     1     3    1
     3     1     4    1
     4     3     5    1
     5     3     6    1
     6     3     7    1
     7     4     8    1
     8     4     9    1
     9     4    10    1

