DMS_2_A_403
  -ISIS-            3D

 10  9  0  0  0  0  0  0  0  0  1 V2000
  -24.3340  -31.5900   19.3780 S   0  0  0  0  0
  -25.0940  -30.4450   18.8200 O   0  0  0  0  0
  -22.6790  -31.2020   19.4030 C   0  0  0  0  0
  -24.6090  -31.6530   21.0620 C   0  0  0  0  0
  -22.1008  -32.0097   19.8965 H   0  0  0  0  0
  -22.5043  -30.2476   19.9409 H   0  0  0  0  0
  -22.3081  -31.0932   18.3633 H   0  0  0  0  0
  -23.9909  -32.4500   21.5237 H   0  0  0  0  0
  -25.6768  -31.8839   21.2545 H   0  0  0  0  0
  -24.3667  -30.6810   21.5386 H   0  0  0  0  0
  1  2  2  0  0  0
  1  3  1  0  0  0
  1  4  1  0  0  0
  3  5  1  0  0  0
  3  6  1  0  0  0
  3  7  1  0  0  0
  4  8  1  0  0  0
  4  9  1  0  0  0
  4 10  1  0  0  0
M  END
$$$$
