DMS_1_B_501
  -ISIS-            3D

 10  9  0  0  0  0  0  0  0  0  1 V2000
  -27.6550   -1.4460  -24.0870 S   0  0  0  0  0
  -26.2640   -2.0140  -24.0620 O   0  0  0  0  0
  -27.8530   -0.1980  -22.7780 C   0  0  0  0  0
  -27.9330   -0.4310  -25.5660 C   0  0  0  0  0
  -28.8751    0.2299  -22.8258 H   0  0  0  0  0
  -27.1039    0.6087  -22.9135 H   0  0  0  0  0
  -27.7026   -0.6784  -21.7897 H   0  0  0  0  0
  -28.9543    0.0005  -25.5330 H   0  0  0  0  0
  -27.8329   -1.0666  -26.4694 H   0  0  0  0  0
  -27.1838    0.3860  -25.6059 H   0  0  0  0  0
  1  2  2  0  0  0
  1  3  1  0  0  0
  1  4  1  0  0  0
  3  5  1  0  0  0
  3  6  1  0  0  0
  3  7  1  0  0  0
  4  8  1  0  0  0
  4  9  1  0  0  0
  4 10  1  0  0  0
M  END
$$$$
