@<TRIPOS>MOLECULE
DMS_1_A_501
 10 9 0 0 0
SMALL
NO_CHARGES

@<TRIPOS>ATOM
      1 S          -8.8160  -26.9360   21.4560 S.o    501  DMS501      0.0000
      2 O          -7.8810  -28.0110   20.9610 O.2    501  DMS501      0.0000
      3 C1         -9.1000  -25.8310   20.0550 C.3    501  DMS501      0.0000
      4 C2        -10.5090  -27.5940   21.5170 C.3    501  DMS501      0.0000
      5 H          -9.8690  -25.0775   20.3218 H      501  DMS501      0.0000
      6 H          -9.4363  -26.4109   19.1709 H      501  DMS501      0.0000
      7 H          -8.1537  -25.3076   19.8074 H      501  DMS501      0.0000
      8 H         -11.2209  -26.7744   21.7438 H      501  DMS501      0.0000
      9 H         -10.5709  -28.3590   22.3178 H      501  DMS501      0.0000
     10 H         -10.7724  -28.0618   20.5460 H      501  DMS501      0.0000
@<TRIPOS>BOND
     1     1     2    2
     2     1     3    1
     3     1     4    1
     4     3     5    1
     5     3     6    1
     6     3     7    1
     7     4     8    1
     8     4     9    1
     9     4    10    1

