@<TRIPOS>MOLECULE
DMS_1_B_501
 10 9 0 0 0
SMALL
NO_CHARGES

@<TRIPOS>ATOM
      1 S         -27.6550   -1.4460  -24.0870 S.o    501  DMS501      0.0000
      2 O         -26.2640   -2.0140  -24.0620 O.2    501  DMS501      0.0000
      3 C1        -27.8530   -0.1980  -22.7780 C.3    501  DMS501      0.0000
      4 C2        -27.9330   -0.4310  -25.5660 C.3    501  DMS501      0.0000
      5 H         -28.8751    0.2299  -22.8258 H      501  DMS501      0.0000
      6 H         -27.1039    0.6087  -22.9135 H      501  DMS501      0.0000
      7 H         -27.7026   -0.6784  -21.7897 H      501  DMS501      0.0000
      8 H         -28.9543    0.0005  -25.5330 H      501  DMS501      0.0000
      9 H         -27.8329   -1.0666  -26.4694 H      501  DMS501      0.0000
     10 H         -27.1838    0.3860  -25.6059 H      501  DMS501      0.0000
@<TRIPOS>BOND
     1     1     2    2
     2     1     3    1
     3     1     4    1
     4     3     5    1
     5     3     6    1
     6     3     7    1
     7     4     8    1
     8     4     9    1
     9     4    10    1

