EDO_1_A_401
  -ISIS-            3D

 10  9  0  0  0  0  0  0  0  0  1 V2000
  -15.5860   -8.1720   27.4210 C   0  0  0  0  0
  -14.9970   -6.8680   27.3190 O   0  0  0  0  0
  -14.6020   -9.1080   28.1110 C   0  0  0  0  0
  -13.3640   -9.1050   27.3880 O   0  0  0  0  0
  -15.8403   -8.5427   26.4060 H   0  0  0  0  0
  -16.5321   -8.1007   27.9958 H   0  0  0  0  0
  -14.0880   -7.0007   27.0741 H   0  0  0  0  0
  -15.0107  -10.1386   28.1733 H   0  0  0  0  0
  -14.4103   -8.7686   29.1502 H   0  0  0  0  0
  -13.3861   -9.8055   26.7493 H   0  0  0  0  0
  1  2  1  0  0  0
  1  3  1  0  0  0
  1  5  1  0  0  0
  1  6  1  0  0  0
  2  7  1  0  0  0
  3  4  1  0  0  0
  3  8  1  0  0  0
  3  9  1  0  0  0
  4 10  1  0  0  0
M  END
$$$$
