@<TRIPOS>MOLECULE
DMS_1_A_401
 10 9 0 0 0
SMALL
NO_CHARGES

@<TRIPOS>ATOM
      1 S           6.9000  -28.0140   21.5590 S.o    401  DMS401      0.0000
      2 O           7.6080  -27.0370   22.3840 O.2    401  DMS401      0.0000
      3 C1          5.6060  -28.6450   22.6290 C.3    401  DMS401      0.0000
      4 C2          5.9010  -27.1090   20.4420 C.3    401  DMS401      0.0000
      5 H           4.9251  -29.2989   22.0467 H      401  DMS401      0.0000
      6 H           5.0273  -27.8071   23.0693 H      401  DMS401      0.0000
      7 H           6.0638  -29.2395   23.4460 H      401  DMS401      0.0000
      8 H           5.2215  -27.7980   19.9002 H      401  DMS401      0.0000
      9 H           6.5479  -26.5929   19.7034 H      401  DMS401      0.0000
     10 H           5.2991  -26.3514   20.9845 H      401  DMS401      0.0000
@<TRIPOS>BOND
     1     1     2    2
     2     1     3    1
     3     1     4    1
     4     3     5    1
     5     3     6    1
     6     3     7    1
     7     4     8    1
     8     4     9    1
     9     4    10    1

