DMS_2_A_401
  -ISIS-            3D

 10  9  0  0  0  0  0  0  0  0  1 V2000
   -6.9000  -28.0140  -21.5590 S   0  0  0  0  0
   -7.6080  -27.0370  -22.3840 O   0  0  0  0  0
   -5.6060  -28.6450  -22.6290 C   0  0  0  0  0
   -5.9010  -27.1090  -20.4420 C   0  0  0  0  0
   -4.9251  -29.2989  -22.0467 H   0  0  0  0  0
   -5.0273  -27.8071  -23.0693 H   0  0  0  0  0
   -6.0638  -29.2395  -23.4460 H   0  0  0  0  0
   -5.2215  -27.7980  -19.9002 H   0  0  0  0  0
   -6.5479  -26.5929  -19.7034 H   0  0  0  0  0
   -5.2991  -26.3514  -20.9845 H   0  0  0  0  0
  1  2  2  0  0  0
  1  3  1  0  0  0
  1  4  1  0  0  0
  3  5  1  0  0  0
  3  6  1  0  0  0
  3  7  1  0  0  0
  4  8  1  0  0  0
  4  9  1  0  0  0
  4 10  1  0  0  0
M  END
$$$$
