@<TRIPOS>MOLECULE
DMS_1_A_802
 10 9 0 0 0
SMALL
NO_CHARGES

@<TRIPOS>ATOM
      1 S          11.6050   49.6860  -15.2190 S.o    802  DMS802      0.0000
      2 O          11.6570   49.8230  -16.6680 O.2    802  DMS802      0.0000
      3 C1         10.7430   48.3330  -14.4960 C.3    802  DMS802      0.0000
      4 C2         12.3880   50.8840  -14.1870 C.3    802  DMS802      0.0000
      5 H          10.8135   48.3905  -13.3909 H      802  DMS802      0.0000
      6 H          11.1914   47.3796  -14.8422 H      802  DMS802      0.0000
      7 H           9.6762   48.3690  -14.7970 H      802  DMS802      0.0000
      8 H          12.2458   50.6114  -13.1216 H      802  DMS802      0.0000
      9 H          11.9413   51.8820  -14.3727 H      802  DMS802      0.0000
     10 H          13.4728   50.9174  -14.4150 H      802  DMS802      0.0000
@<TRIPOS>BOND
     1     1     2    2
     2     1     3    1
     3     1     4    1
     4     3     5    1
     5     3     6    1
     6     3     7    1
     7     4     8    1
     8     4     9    1
     9     4    10    1

