DMS_2_A_401
  -ISIS-            3D

 10  9  0  0  0  0  0  0  0  0  1 V2000
   -6.8000  -28.0430  -21.4940 S   0  0  0  0  0
   -7.6880  -27.2330  -22.3300 O   0  0  0  0  0
   -5.5330  -28.6910  -22.5640 C   0  0  0  0  0
   -5.8180  -26.9150  -20.5870 C   0  0  0  0  0
   -4.7563  -29.2028  -21.9598 H   0  0  0  0  0
   -5.0663  -27.8723  -23.1493 H   0  0  0  0  0
   -5.9837  -29.4242  -23.2638 H   0  0  0  0  0
   -5.0322  -27.4625  -20.0276 H   0  0  0  0  0
   -6.4560  -26.3699  -19.8616 H   0  0  0  0  0
   -5.3398  -26.1806  -21.2673 H   0  0  0  0  0
  1  2  2  0  0  0
  1  3  1  0  0  0
  1  4  1  0  0  0
  3  5  1  0  0  0
  3  6  1  0  0  0
  3  7  1  0  0  0
  4  8  1  0  0  0
  4  9  1  0  0  0
  4 10  1  0  0  0
M  END
$$$$
