@<TRIPOS>MOLECULE
DMS_2_A_402
 10 9 0 0 0
SMALL
NO_CHARGES

@<TRIPOS>ATOM
      1 S          -6.1610   -1.2540    6.2710 S.o    402  DMS402      0.0000
      2 O          -6.9690   -1.1510    7.4690 O.2    402  DMS402      0.0000
      3 C1         -7.3000   -1.1000    4.9160 C.3    402  DMS402      0.0000
      4 C2         -5.7090   -2.9310    6.0680 C.3    402  DMS402      0.0000
      5 H          -6.7709   -1.2819    3.9583 H      402  DMS402      0.0000
      6 H          -7.7201   -0.0735    4.9036 H      402  DMS402      0.0000
      7 H          -8.1290   -1.8295    5.0234 H      402  DMS402      0.0000
      8 H          -5.2051   -3.0706    5.0898 H      402  DMS402      0.0000
      9 H          -6.6051   -3.5832    6.1156 H      402  DMS402      0.0000
     10 H          -5.0072   -3.2245    6.8753 H      402  DMS402      0.0000
@<TRIPOS>BOND
     1     1     2    2
     2     1     3    1
     3     1     4    1
     4     3     5    1
     5     3     6    1
     6     3     7    1
     7     4     8    1
     8     4     9    1
     9     4    10    1

