@<TRIPOS>MOLECULE
DMS_2_A_403
 10 9 0 0 0
SMALL
NO_CHARGES

@<TRIPOS>ATOM
      1 S          -2.1840  -19.1550   -8.2350 S.o    403  DMS403      0.0000
      2 O          -3.5060  -18.9150   -8.8380 O.2    403  DMS403      0.0000
      3 C1         -1.1180  -17.9590   -9.0030 C.3    403  DMS403      0.0000
      4 C2         -1.5900  -20.6100   -9.0670 C.3    403  DMS403      0.0000
      5 H          -0.0620  -18.1762   -8.7424 H      403  DMS403      0.0000
      6 H          -1.3768  -16.9455   -8.6339 H      403  DMS403      0.0000
      7 H          -1.2381  -17.9842  -10.1056 H      403  DMS403      0.0000
      8 H          -0.5252  -20.7812   -8.8080 H      403  DMS403      0.0000
      9 H          -1.6879  -20.4952  -10.1662 H      403  DMS403      0.0000
     10 H          -2.1837  -21.4882   -8.7404 H      403  DMS403      0.0000
@<TRIPOS>BOND
     1     1     2    2
     2     1     3    1
     3     1     4    1
     4     3     5    1
     5     3     6    1
     6     3     7    1
     7     4     8    1
     8     4     9    1
     9     4    10    1

