@<TRIPOS>MOLECULE
DMS_2_A_401
 10 9 0 0 0
SMALL
NO_CHARGES

@<TRIPOS>ATOM
      1 S          -6.8000  -28.0430  -21.4940 S.o    401  DMS401      0.0000
      2 O          -7.6880  -27.2330  -22.3300 O.2    401  DMS401      0.0000
      3 C1         -5.5330  -28.6910  -22.5640 C.3    401  DMS401      0.0000
      4 C2         -5.8180  -26.9150  -20.5870 C.3    401  DMS401      0.0000
      5 H          -4.7563  -29.2028  -21.9598 H      401  DMS401      0.0000
      6 H          -5.0663  -27.8723  -23.1493 H      401  DMS401      0.0000
      7 H          -5.9837  -29.4242  -23.2638 H      401  DMS401      0.0000
      8 H          -5.0322  -27.4625  -20.0276 H      401  DMS401      0.0000
      9 H          -6.4560  -26.3699  -19.8616 H      401  DMS401      0.0000
     10 H          -5.3398  -26.1806  -21.2673 H      401  DMS401      0.0000
@<TRIPOS>BOND
     1     1     2    2
     2     1     3    1
     3     1     4    1
     4     3     5    1
     5     3     6    1
     6     3     7    1
     7     4     8    1
     8     4     9    1
     9     4    10    1

