DMS_1_A_402
  -ISIS-            3D

 10  9  0  0  0  0  0  0  0  0  1 V2000
    6.1610   -1.2540   -6.2710 S   0  0  0  0  0
    6.9690   -1.1510   -7.4690 O   0  0  0  0  0
    7.3000   -1.1000   -4.9160 C   0  0  0  0  0
    5.7090   -2.9310   -6.0680 C   0  0  0  0  0
    6.7709   -1.2819   -3.9583 H   0  0  0  0  0
    7.7201   -0.0735   -4.9036 H   0  0  0  0  0
    8.1290   -1.8295   -5.0234 H   0  0  0  0  0
    5.2051   -3.0706   -5.0898 H   0  0  0  0  0
    6.6051   -3.5832   -6.1156 H   0  0  0  0  0
    5.0072   -3.2245   -6.8753 H   0  0  0  0  0
  1  2  2  0  0  0
  1  3  1  0  0  0
  1  4  1  0  0  0
  3  5  1  0  0  0
  3  6  1  0  0  0
  3  7  1  0  0  0
  4  8  1  0  0  0
  4  9  1  0  0  0
  4 10  1  0  0  0
M  END
$$$$
