DMS_2_A_405
  -ISIS-            3D

 10  9  0  0  0  0  0  0  0  0  1 V2000
    5.3940  -19.6580   -7.0810 S   0  0  0  0  0
    4.7490  -18.8870   -5.9700 O   0  0  0  0  0
    4.2810  -19.7450   -8.5360 C   0  0  0  0  0
    5.4160  -21.3900   -6.5280 C   0  0  0  0  0
    4.7297  -20.4083   -9.3034 H   0  0  0  0  0
    4.1535  -18.7270   -8.9576 H   0  0  0  0  0
    3.2933  -20.1445   -8.2271 H   0  0  0  0  0
    5.8271  -22.0297   -7.3355 H   0  0  0  0  0
    4.3857  -21.7189   -6.2813 H   0  0  0  0  0
    6.0579  -21.4790   -5.6278 H   0  0  0  0  0
  1  2  2  0  0  0
  1  3  1  0  0  0
  1  4  1  0  0  0
  3  5  1  0  0  0
  3  6  1  0  0  0
  3  7  1  0  0  0
  4  8  1  0  0  0
  4  9  1  0  0  0
  4 10  1  0  0  0
M  END
$$$$
