@<TRIPOS>MOLECULE
DMS_1_A_404
 10 9 0 0 0
SMALL
NO_CHARGES

@<TRIPOS>ATOM
      1 S           9.7820    1.4440   21.1870 S.o    404  DMS404      0.0000
      2 O           9.5950    2.8470   21.6600 O.2    404  DMS404      0.0000
      3 C1          8.1350    0.7090   21.1860 C.3    404  DMS404      0.0000
      4 C2         10.7400    0.8780   22.6250 C.3    404  DMS404      0.0000
      5 H           8.2242   -0.3893   21.0605 H      404  DMS404      0.0000
      6 H           7.5450    1.1283   20.3455 H      404  DMS404      0.0000
      7 H           7.6237    0.9304   22.1453 H      404  DMS404      0.0000
      8 H          10.8819   -0.2199   22.5569 H      404  DMS404      0.0000
      9 H          10.1976    1.1191   23.5621 H      404  DMS404      0.0000
     10 H          11.7321    1.3746   22.6290 H      404  DMS404      0.0000
@<TRIPOS>BOND
     1     1     2    2
     2     1     3    1
     3     1     4    1
     4     3     5    1
     5     3     6    1
     6     3     7    1
     7     4     8    1
     8     4     9    1
     9     4    10    1

