@<TRIPOS>MOLECULE
DMS_1_A_403
 10 9 0 0 0
SMALL
NO_CHARGES

@<TRIPOS>ATOM
      1 S           7.6290   -0.8980   -4.5460 S.o    403  DMS403      0.0000
      2 O           7.7660    0.5780   -4.1600 O.2    403  DMS403      0.0000
      3 C1          7.0050   -1.1180   -6.2770 C.3    403  DMS403      0.0000
      4 C2          6.1610   -1.7870   -4.0360 C.3    403  DMS403      0.0000
      5 H           6.9175   -2.1954   -6.5259 H      403  DMS403      0.0000
      6 H           7.7361   -0.6571   -6.9726 H      403  DMS403      0.0000
      7 H           6.0276   -0.6098   -6.4082 H      403  DMS403      0.0000
      8 H           6.1651   -2.8192   -4.4420 H      403  DMS403      0.0000
      9 H           5.2418   -1.2535   -4.3534 H      403  DMS403      0.0000
     10 H           6.1562   -1.8527   -2.9286 H      403  DMS403      0.0000
@<TRIPOS>BOND
     1     1     2    2
     2     1     3    1
     3     1     4    1
     4     3     5    1
     5     3     6    1
     6     3     7    1
     7     4     8    1
     8     4     9    1
     9     4    10    1

