@<TRIPOS>MOLECULE
DMS_1_A_405
 10 9 0 0 0
SMALL
NO_CHARGES

@<TRIPOS>ATOM
      1 S         115.3980  -18.6930    8.8330 S.o    405  DMS405      0.0000
      2 O         115.1920  -19.6760    7.7090 O.2    405  DMS405      0.0000
      3 C1        115.9880  -19.6690   10.1800 C.3    405  DMS405      0.0000
      4 C2        113.7870  -18.3590    9.5180 C.3    405  DMS405      0.0000
      5 H         116.0263  -19.0557   11.1035 H      405  DMS405      0.0000
      6 H         117.0118  -20.0293    9.9506 H      405  DMS405      0.0000
      7 H         115.3282  -20.5452   10.3461 H      405  DMS405      0.0000
      8 H         113.8892  -17.7733   10.4545 H      405  DMS405      0.0000
      9 H         113.2509  -19.3068    9.7297 H      405  DMS405      0.0000
     10 H         113.1967  -17.7668    8.7891 H      405  DMS405      0.0000
@<TRIPOS>BOND
     1     1     2    2
     2     1     3    1
     3     1     4    1
     4     3     5    1
     5     3     6    1
     6     3     7    1
     7     4     8    1
     8     4     9    1
     9     4    10    1

