DMS_1_A_405
  -ISIS-            3D

 10  9  0  0  0  0  0  0  0  0  1 V2000
  115.3980  -18.6930    8.8330 S   0  0  0  0  0
  115.1920  -19.6760    7.7090 O   0  0  0  0  0
  115.9880  -19.6690   10.1800 C   0  0  0  0  0
  113.7870  -18.3590    9.5180 C   0  0  0  0  0
  116.0263  -19.0557   11.1035 H   0  0  0  0  0
  117.0118  -20.0293    9.9506 H   0  0  0  0  0
  115.3282  -20.5452   10.3461 H   0  0  0  0  0
  113.8892  -17.7733   10.4545 H   0  0  0  0  0
  113.2509  -19.3068    9.7297 H   0  0  0  0  0
  113.1967  -17.7668    8.7891 H   0  0  0  0  0
  1  2  2  0  0  0
  1  3  1  0  0  0
  1  4  1  0  0  0
  3  5  1  0  0  0
  3  6  1  0  0  0
  3  7  1  0  0  0
  4  8  1  0  0  0
  4  9  1  0  0  0
  4 10  1  0  0  0
M  END
$$$$
