DMS_2_A_403
  -ISIS-            3D

 10  9  0  0  0  0  0  0  0  0  1 V2000
  106.0690  -20.7610  -29.5200 S   0  0  0  0  0
  104.8600  -20.5130  -30.3810 O   0  0  0  0  0
  107.4740  -20.4410  -30.5620 C   0  0  0  0  0
  106.2540  -22.5240  -29.4650 C   0  0  0  0  0
  108.4046  -20.7582  -30.0483 H   0  0  0  0  0
  107.5343  -19.3531  -30.7697 H   0  0  0  0  0
  107.3772  -20.9860  -31.5234 H   0  0  0  0  0
  107.2169  -22.7876  -28.9813 H   0  0  0  0  0
  106.2251  -22.9507  -30.4887 H   0  0  0  0  0
  105.4256  -22.9602  -28.8704 H   0  0  0  0  0
  1  2  2  0  0  0
  1  3  1  0  0  0
  1  4  1  0  0  0
  3  5  1  0  0  0
  3  6  1  0  0  0
  3  7  1  0  0  0
  4  8  1  0  0  0
  4  9  1  0  0  0
  4 10  1  0  0  0
M  END
$$$$
