DMS_1_A_403
  -ISIS-            3D

 10  9  0  0  0  0  0  0  0  0  1 V2000
  120.3070  -20.7610   29.5200 S   0  0  0  0  0
  121.5160  -20.5130   30.3810 O   0  0  0  0  0
  118.9020  -20.4410   30.5620 C   0  0  0  0  0
  120.1220  -22.5240   29.4650 C   0  0  0  0  0
  117.9714  -20.7582   30.0483 H   0  0  0  0  0
  118.8417  -19.3531   30.7697 H   0  0  0  0  0
  118.9988  -20.9860   31.5234 H   0  0  0  0  0
  119.1591  -22.7876   28.9813 H   0  0  0  0  0
  120.1509  -22.9507   30.4887 H   0  0  0  0  0
  120.9504  -22.9602   28.8704 H   0  0  0  0  0
  1  2  2  0  0  0
  1  3  1  0  0  0
  1  4  1  0  0  0
  3  5  1  0  0  0
  3  6  1  0  0  0
  3  7  1  0  0  0
  4  8  1  0  0  0
  4  9  1  0  0  0
  4 10  1  0  0  0
M  END
$$$$
