@<TRIPOS>MOLECULE
DMS_2_A_403
 10 9 0 0 0
SMALL
NO_CHARGES

@<TRIPOS>ATOM
      1 S         106.0690  -20.7610  -29.5200 S.o    403  DMS403      0.0000
      2 O         104.8600  -20.5130  -30.3810 O.2    403  DMS403      0.0000
      3 C1        107.4740  -20.4410  -30.5620 C.3    403  DMS403      0.0000
      4 C2        106.2540  -22.5240  -29.4650 C.3    403  DMS403      0.0000
      5 H         108.4046  -20.7582  -30.0483 H      403  DMS403      0.0000
      6 H         107.5343  -19.3531  -30.7697 H      403  DMS403      0.0000
      7 H         107.3772  -20.9860  -31.5234 H      403  DMS403      0.0000
      8 H         107.2169  -22.7876  -28.9813 H      403  DMS403      0.0000
      9 H         106.2251  -22.9507  -30.4887 H      403  DMS403      0.0000
     10 H         105.4256  -22.9602  -28.8704 H      403  DMS403      0.0000
@<TRIPOS>BOND
     1     1     2    2
     2     1     3    1
     3     1     4    1
     4     3     5    1
     5     3     6    1
     6     3     7    1
     7     4     8    1
     8     4     9    1
     9     4    10    1

