NNA_2_A_401
  -ISIS-            3D

112115  0  0  0  0  0  0  0  0  1 V2000
  101.1960    4.7440  -22.5650 C   0  0  0  0  0
  100.7190    4.3570  -23.6560 O   0  0  0  0  0
  100.5280    5.5240  -21.6970 N   0  0  0  0  0
   99.2070    6.1250  -21.9390 C   0  0  0  0  0
   98.8380    6.9790  -20.7210 C   0  0  0  0  0
   98.1240    5.0580  -22.1350 C   0  0  0  0  0
   98.5310    6.1420  -19.4870 C   0  0  0  0  0
   97.8820    4.2250  -20.8860 C   0  0  0  0  0
   97.4410    5.1330  -19.7630 C   0  0  0  0  0
   99.2780    6.9890  -23.2420 C   0  0  0  0  0
  100.3640    8.3980  -23.1750 S   0  0  0  0  0
  101.5860    8.0420  -22.5080 O   0  0  0  0  0
   99.6380    9.5100  -22.6420 O   0  0  0  0  0
  100.8490    8.7910  -24.8710 C   0  0  0  0  0
  101.6890    7.6530  -25.4400 C   0  0  0  0  0
   99.5590    8.9610  -25.6720 C   0  0  0  0  0
  101.6580   10.0830  -24.8700 C   0  0  0  0  0
  102.4490    4.4340  -22.1860 N   0  0  0  0  0
  103.2100    3.4080  -22.8760 C   0  0  0  0  0
  104.6330    3.8860  -23.1750 C   0  0  0  0  0
  105.3940    2.7690  -23.8710 C   0  0  0  0  0
  104.5440    5.0900  -24.1100 C   0  0  0  0  0
  105.4250    4.2950  -21.9330 C   0  0  0  0  0
  103.0600    2.0870  -22.1070 C   0  0  0  0  0
  103.4190    2.0020  -20.9460 O   0  0  0  0  0
  102.5540    1.0350  -22.7730 N   0  0  0  0  0
  102.1490    1.0460  -24.1980 C   0  0  0  0  0
  102.3860   -0.2830  -22.1530 C   0  0  0  0  0
  101.4570   -1.0220  -23.0740 C   0  0  0  0  0
  101.2900   -0.1940  -24.3390 C   0  0  0  0  0
  100.1020   -0.4670  -23.4320 C   0  0  0  0  0
   99.0900   -1.4620  -23.9630 C   0  0  0  0  0
   99.4450    0.6640  -22.6680 C   0  0  0  0  0
  103.7160   -0.9980  -22.1240 C   0  0  0  0  0
  104.3690   -1.0820  -23.1580 O   0  0  0  0  0
  104.1590   -1.4410  -20.9440 N   0  0  0  0  0
  105.5070   -2.0230  -20.8060 C   0  0  0  0  0
  106.3980   -1.1000  -19.9560 C   0  0  0  0  0
  106.7710    0.2180  -20.6290 C   0  0  0  0  0
  107.8750    0.9780  -19.9360 C   0  0  0  0  0
  107.7820    0.9260  -18.4470 C   0  0  0  0  0
  104.5010   -4.2320  -20.9640 O   0  0  0  0  0
  105.4520   -3.4780  -20.2560 C   0  0  0  0  0
  107.5990   -4.2060  -19.5520 O   0  0  0  0  0
  106.9580   -4.7280  -21.6690 N   0  0  0  0  0
  108.1170   -5.5290  -21.9430 C   0  0  0  0  0
  109.3210   -4.8570  -22.5100 C   0  0  0  0  0
  108.5140   -5.7750  -23.3620 C   0  0  0  0  0
  106.7640   -4.1670  -20.4510 C   0  0  0  0  0
  100.9962    5.7557  -20.8117 H   0  0  0  0  0
   97.9419    7.5969  -20.9636 H   0  0  0  0  0
   99.6522    7.6985  -20.4767 H   0  0  0  0  0
   98.3848    4.3829  -22.9803 H   0  0  0  0  0
   97.1672    5.5487  -22.4298 H   0  0  0  0  0
   98.2133    6.8137  -18.6554 H   0  0  0  0  0
   99.4497    5.6239  -19.1287 H   0  0  0  0  0
   98.8021    3.6636  -20.6042 H   0  0  0  0  0
   97.0941    3.4626  -21.0881 H   0  0  0  0  0
   96.4877    5.6476  -20.0239 H   0  0  0  0  0
   97.2390    4.5319  -18.8461 H   0  0  0  0  0
   98.2729    7.3867  -23.4950 H   0  0  0  0  0
   99.5837    6.3691  -24.1037 H   0  0  0  0  0
  102.0069    7.8717  -26.4827 H   0  0  0  0  0
  101.1499    6.6840  -25.4812 H   0  0  0  0  0
  102.6213    7.4843  -24.8602 H   0  0  0  0  0
   99.7781    9.2561  -26.7214 H   0  0  0  0  0
   98.8982    9.7534  -25.2576 H   0  0  0  0  0
   98.9577    8.0296  -25.7365 H   0  0  0  0  0
  101.9734   10.3670  -25.8976 H   0  0  0  0  0
  102.5867   10.0001  -24.2642 H   0  0  0  0  0
  101.0816   10.9443  -24.4675 H   0  0  0  0  0
  102.8532    4.8704  -21.3482 H   0  0  0  0  0
  102.7627    3.2646  -23.8809 H   0  0  0  0  0
  106.4287    3.0776  -24.1410 H   0  0  0  0  0
  104.9035    2.4529  -24.8179 H   0  0  0  0  0
  105.4907    1.8619  -23.2345 H   0  0  0  0  0
  105.5517    5.4514  -24.4146 H   0  0  0  0  0
  104.0296    5.9537  -23.6340 H   0  0  0  0  0
  103.9925    4.8582  -25.0486 H   0  0  0  0  0
  106.4653    4.5967  -22.1892 H   0  0  0  0  0
  105.5097    3.4671  -21.1961 H   0  0  0  0  0
  104.9736    5.1600  -21.4006 H   0  0  0  0  0
  103.0309    0.9652  -24.8725 H   0  0  0  0  0
  101.5373    1.9225  -24.5007 H   0  0  0  0  0
  101.9344   -0.2205  -21.1371 H   0  0  0  0  0
  101.5820   -2.0982  -23.1724 H   0  0  0  0  0
  101.2922   -0.7025  -25.3005 H   0  0  0  0  0
   98.3642   -0.9626  -24.6424 H   0  0  0  0  0
   98.5173   -1.9236  -23.1284 H   0  0  0  0  0
   99.5699   -2.2867  -24.5346 H   0  0  0  0  0
   98.7339    1.2173  -23.3205 H   0  0  0  0  0
  100.1693    1.4046  -22.2715 H   0  0  0  0  0
   98.8731    0.2685  -21.7998 H   0  0  0  0  0
  103.5694   -1.3393  -20.1060 H   0  0  0  0  0
  105.9906   -2.0937  -21.8091 H   0  0  0  0  0
  107.3428   -1.6438  -19.7271 H   0  0  0  0  0
  105.8934   -0.9114  -18.9808 H   0  0  0  0  0
  105.8609    0.8592  -20.6743 H   0  0  0  0  0
  107.0696    0.0328  -21.6870 H   0  0  0  0  0
  107.8695    2.0382  -20.2815 H   0  0  0  0  0
  108.8604    0.5572  -20.2463 H   0  0  0  0  0
  108.5501    1.5801  -17.9757 H   0  0  0  0  0
  107.9498   -0.0933  -18.0350 H   0  0  0  0  0
  106.7937    1.2822  -18.0786 H   0  0  0  0  0
  103.6308   -3.9125  -20.7724 H   0  0  0  0  0
  105.1903   -3.4612  -19.1743 H   0  0  0  0  0
  106.2039   -4.5994  -22.3613 H   0  0  0  0  0
  108.3219   -6.3585  -21.2653 H   0  0  0  0  0
  110.2806   -5.2400  -22.1733 H   0  0  0  0  0
  109.2189   -3.7968  -22.7257 H   0  0  0  0  0
  107.9010   -5.2989  -24.1223 H   0  0  0  0  0
  108.9584   -6.7448  -23.5694 H   0  0  0  0  0
  1  2  2  0  0  0
  1  3  1  0  0  0
  1 18  1  0  0  0
  3  4  1  0  0  0
  3 50  1  0  0  0
  4  5  1  0  0  0
  4  6  1  0  0  0
  4 10  1  0  0  0
  5  7  1  0  0  0
  5 51  1  0  0  0
  5 52  1  0  0  0
  6  8  1  0  0  0
  6 53  1  0  0  0
  6 54  1  0  0  0
  7  9  1  0  0  0
  7 55  1  0  0  0
  7 56  1  0  0  0
  8  9  1  0  0  0
  8 57  1  0  0  0
  8 58  1  0  0  0
  9 59  1  0  0  0
  9 60  1  0  0  0
 10 11  1  0  0  0
 10 61  1  0  0  0
 10 62  1  0  0  0
 11 12  2  0  0  0
 11 13  2  0  0  0
 11 14  1  0  0  0
 14 15  1  0  0  0
 14 16  1  0  0  0
 14 17  1  0  0  0
 15 63  1  0  0  0
 15 64  1  0  0  0
 15 65  1  0  0  0
 16 66  1  0  0  0
 16 67  1  0  0  0
 16 68  1  0  0  0
 17 69  1  0  0  0
 17 70  1  0  0  0
 17 71  1  0  0  0
 18 19  1  0  0  0
 18 72  1  0  0  0
 19 20  1  0  0  0
 19 24  1  0  0  0
 19 73  1  0  0  0
 20 21  1  0  0  0
 20 22  1  0  0  0
 20 23  1  0  0  0
 21 74  1  0  0  0
 21 75  1  0  0  0
 21 76  1  0  0  0
 22 77  1  0  0  0
 22 78  1  0  0  0
 22 79  1  0  0  0
 23 80  1  0  0  0
 23 81  1  0  0  0
 23 82  1  0  0  0
 24 25  2  0  0  0
 24 26  1  0  0  0
 26 27  1  0  0  0
 26 28  1  0  0  0
 27 30  1  0  0  0
 27 83  1  0  0  0
 27 84  1  0  0  0
 28 29  1  0  0  0
 28 34  1  0  0  0
 28 85  1  0  0  0
 29 30  1  0  0  0
 29 31  1  0  0  0
 29 86  1  0  0  0
 30 31  1  0  0  0
 30 87  1  0  0  0
 31 32  1  0  0  0
 31 33  1  0  0  0
 32 88  1  0  0  0
 32 89  1  0  0  0
 32 90  1  0  0  0
 33 91  1  0  0  0
 33 92  1  0  0  0
 33 93  1  0  0  0
 34 35  2  0  0  0
 34 36  1  0  0  0
 36 37  1  0  0  0
 36 94  1  0  0  0
 37 38  1  0  0  0
 37 43  1  0  0  0
 37 95  1  0  0  0
 38 39  1  0  0  0
 38 96  1  0  0  0
 38 97  1  0  0  0
 39 40  1  0  0  0
 39 98  1  0  0  0
 39 99  1  0  0  0
 40 41  1  0  0  0
 40100  1  0  0  0
 40101  1  0  0  0
 41102  1  0  0  0
 41103  1  0  0  0
 41104  1  0  0  0
 42 43  1  0  0  0
 42105  1  0  0  0
 43 49  1  0  0  0
 43106  1  0  0  0
 44 49  2  0  0  0
 45 46  1  0  0  0
 45 49  1  0  0  0
 45107  1  0  0  0
 46 47  1  0  0  0
 46 48  1  0  0  0
 46108  1  0  0  0
 47 48  1  0  0  0
 47109  1  0  0  0
 47110  1  0  0  0
 48111  1  0  0  0
 48112  1  0  0  0
M  END
$$$$
