NNA_1_A_401
  -ISIS-            3D

112115  0  0  0  0  0  0  0  0  1 V2000
  125.1800    4.7440   22.5650 C   0  0  0  0  0
  125.6570    4.3570   23.6560 O   0  0  0  0  0
  125.8480    5.5240   21.6970 N   0  0  0  0  0
  127.1690    6.1250   21.9390 C   0  0  0  0  0
  127.5380    6.9790   20.7210 C   0  0  0  0  0
  128.2520    5.0580   22.1350 C   0  0  0  0  0
  127.8450    6.1420   19.4870 C   0  0  0  0  0
  128.4940    4.2250   20.8860 C   0  0  0  0  0
  128.9350    5.1330   19.7630 C   0  0  0  0  0
  127.0980    6.9890   23.2420 C   0  0  0  0  0
  126.0120    8.3980   23.1750 S   0  0  0  0  0
  124.7900    8.0420   22.5080 O   0  0  0  0  0
  126.7380    9.5100   22.6420 O   0  0  0  0  0
  125.5270    8.7910   24.8710 C   0  0  0  0  0
  124.6870    7.6530   25.4400 C   0  0  0  0  0
  126.8170    8.9610   25.6720 C   0  0  0  0  0
  124.7180   10.0830   24.8700 C   0  0  0  0  0
  123.9270    4.4340   22.1860 N   0  0  0  0  0
  123.1660    3.4080   22.8760 C   0  0  0  0  0
  121.7430    3.8860   23.1750 C   0  0  0  0  0
  120.9820    2.7690   23.8710 C   0  0  0  0  0
  121.8320    5.0900   24.1100 C   0  0  0  0  0
  120.9510    4.2950   21.9330 C   0  0  0  0  0
  123.3160    2.0870   22.1070 C   0  0  0  0  0
  122.9570    2.0020   20.9460 O   0  0  0  0  0
  123.8220    1.0350   22.7730 N   0  0  0  0  0
  124.2270    1.0460   24.1980 C   0  0  0  0  0
  123.9900   -0.2830   22.1530 C   0  0  0  0  0
  124.9190   -1.0220   23.0740 C   0  0  0  0  0
  125.0860   -0.1940   24.3390 C   0  0  0  0  0
  126.2740   -0.4670   23.4320 C   0  0  0  0  0
  127.2860   -1.4620   23.9630 C   0  0  0  0  0
  126.9310    0.6640   22.6680 C   0  0  0  0  0
  122.6600   -0.9980   22.1240 C   0  0  0  0  0
  122.0070   -1.0820   23.1580 O   0  0  0  0  0
  122.2170   -1.4410   20.9440 N   0  0  0  0  0
  120.8690   -2.0230   20.8060 C   0  0  0  0  0
  119.9780   -1.1000   19.9560 C   0  0  0  0  0
  119.6050    0.2180   20.6290 C   0  0  0  0  0
  118.5010    0.9780   19.9360 C   0  0  0  0  0
  118.5940    0.9260   18.4470 C   0  0  0  0  0
  121.8750   -4.2320   20.9640 O   0  0  0  0  0
  120.9240   -3.4780   20.2560 C   0  0  0  0  0
  118.7770   -4.2060   19.5520 O   0  0  0  0  0
  119.4180   -4.7280   21.6690 N   0  0  0  0  0
  118.2590   -5.5290   21.9430 C   0  0  0  0  0
  117.0550   -4.8570   22.5100 C   0  0  0  0  0
  117.8620   -5.7750   23.3620 C   0  0  0  0  0
  119.6120   -4.1670   20.4510 C   0  0  0  0  0
  125.3798    5.7553   20.8116 H   0  0  0  0  0
  128.4341    7.5969   20.9636 H   0  0  0  0  0
  126.7238    7.6985   20.4767 H   0  0  0  0  0
  127.9912    4.3829   22.9803 H   0  0  0  0  0
  129.2088    5.5487   22.4298 H   0  0  0  0  0
  128.1627    6.8137   18.6554 H   0  0  0  0  0
  126.9263    5.6239   19.1286 H   0  0  0  0  0
  127.5739    3.6635   20.6042 H   0  0  0  0  0
  129.2820    3.4626   21.0882 H   0  0  0  0  0
  129.8884    5.6475   20.0239 H   0  0  0  0  0
  129.1370    4.5319   18.8461 H   0  0  0  0  0
  128.1031    7.3867   23.4949 H   0  0  0  0  0
  126.7924    6.3691   24.1038 H   0  0  0  0  0
  124.3692    7.8716   26.4828 H   0  0  0  0  0
  125.2260    6.6839   25.4811 H   0  0  0  0  0
  123.7546    7.4844   24.8603 H   0  0  0  0  0
  126.5979    9.2550   26.7217 H   0  0  0  0  0
  127.4773    9.7542   25.2583 H   0  0  0  0  0
  127.4190    8.0299   25.7356 H   0  0  0  0  0
  124.4019   10.3666   25.8975 H   0  0  0  0  0
  123.7897   10.0004   24.2636 H   0  0  0  0  0
  125.2946   10.9445   24.4683 H   0  0  0  0  0
  123.5228    4.8698   21.3479 H   0  0  0  0  0
  123.6133    3.2646   23.8808 H   0  0  0  0  0
  119.9475    3.0777   24.1415 H   0  0  0  0  0
  121.4728    2.4525   24.8177 H   0  0  0  0  0
  120.8848    1.8621   23.2343 H   0  0  0  0  0
  120.8244    5.4499   24.4165 H   0  0  0  0  0
  122.3443    5.9546   23.6332 H   0  0  0  0  0
  122.3855    4.8590   25.0476 H   0  0  0  0  0
  119.9100    4.5946   22.1889 H   0  0  0  0  0
  120.8682    3.4678   21.1950 H   0  0  0  0  0
  121.4013    5.1614   21.4019 H   0  0  0  0  0
  123.3451    0.9652   24.8725 H   0  0  0  0  0
  124.8388    1.9225   24.5007 H   0  0  0  0  0
  124.4414   -0.2205   21.1370 H   0  0  0  0  0
  124.7939   -2.0982   23.1724 H   0  0  0  0  0
  125.0838   -0.7025   25.3005 H   0  0  0  0  0
  128.0081   -0.9637   24.6471 H   0  0  0  0  0
  127.8629   -1.9193   23.1289 H   0  0  0  0  0
  126.8057   -2.2898   24.5296 H   0  0  0  0  0
  127.6409    1.2182   23.3210 H   0  0  0  0  0
  126.2067    1.4038   22.2702 H   0  0  0  0  0
  127.5043    0.2685   21.8007 H   0  0  0  0  0
  122.8137   -1.3606   20.1096 H   0  0  0  0  0
  120.3855   -2.0938   21.8091 H   0  0  0  0  0
  119.0332   -1.6437   19.7270 H   0  0  0  0  0
  120.4826   -0.9113   18.9808 H   0  0  0  0  0
  120.5151    0.8592   20.6744 H   0  0  0  0  0
  119.3064    0.0328   21.6870 H   0  0  0  0  0
  118.5070    2.0383   20.2814 H   0  0  0  0  0
  117.5154    0.5577   20.2464 H   0  0  0  0  0
  117.8295    1.5842   17.9757 H   0  0  0  0  0
  118.4208   -0.0924   18.0349 H   0  0  0  0  0
  119.5842    1.2770   18.0787 H   0  0  0  0  0
  122.0091   -5.0589   20.5187 H   0  0  0  0  0
  121.1920   -3.4498   19.1760 H   0  0  0  0  0
  120.1636   -4.5866   22.3683 H   0  0  0  0  0
  118.0541   -6.3585   21.2652 H   0  0  0  0  0
  116.0954   -5.2399   22.1733 H   0  0  0  0  0
  117.1570   -3.7968   22.7257 H   0  0  0  0  0
  118.4748   -5.2990   24.1224 H   0  0  0  0  0
  117.4176   -6.7448   23.5694 H   0  0  0  0  0
  1  2  2  0  0  0
  1  3  1  0  0  0
  1 18  1  0  0  0
  3  4  1  0  0  0
  3 50  1  0  0  0
  4  5  1  0  0  0
  4  6  1  0  0  0
  4 10  1  0  0  0
  5  7  1  0  0  0
  5 51  1  0  0  0
  5 52  1  0  0  0
  6  8  1  0  0  0
  6 53  1  0  0  0
  6 54  1  0  0  0
  7  9  1  0  0  0
  7 55  1  0  0  0
  7 56  1  0  0  0
  8  9  1  0  0  0
  8 57  1  0  0  0
  8 58  1  0  0  0
  9 59  1  0  0  0
  9 60  1  0  0  0
 10 11  1  0  0  0
 10 61  1  0  0  0
 10 62  1  0  0  0
 11 12  2  0  0  0
 11 13  2  0  0  0
 11 14  1  0  0  0
 14 15  1  0  0  0
 14 16  1  0  0  0
 14 17  1  0  0  0
 15 63  1  0  0  0
 15 64  1  0  0  0
 15 65  1  0  0  0
 16 66  1  0  0  0
 16 67  1  0  0  0
 16 68  1  0  0  0
 17 69  1  0  0  0
 17 70  1  0  0  0
 17 71  1  0  0  0
 18 19  1  0  0  0
 18 72  1  0  0  0
 19 20  1  0  0  0
 19 24  1  0  0  0
 19 73  1  0  0  0
 20 21  1  0  0  0
 20 22  1  0  0  0
 20 23  1  0  0  0
 21 74  1  0  0  0
 21 75  1  0  0  0
 21 76  1  0  0  0
 22 77  1  0  0  0
 22 78  1  0  0  0
 22 79  1  0  0  0
 23 80  1  0  0  0
 23 81  1  0  0  0
 23 82  1  0  0  0
 24 25  2  0  0  0
 24 26  1  0  0  0
 26 27  1  0  0  0
 26 28  1  0  0  0
 27 30  1  0  0  0
 27 83  1  0  0  0
 27 84  1  0  0  0
 28 29  1  0  0  0
 28 34  1  0  0  0
 28 85  1  0  0  0
 29 30  1  0  0  0
 29 31  1  0  0  0
 29 86  1  0  0  0
 30 31  1  0  0  0
 30 87  1  0  0  0
 31 32  1  0  0  0
 31 33  1  0  0  0
 32 88  1  0  0  0
 32 89  1  0  0  0
 32 90  1  0  0  0
 33 91  1  0  0  0
 33 92  1  0  0  0
 33 93  1  0  0  0
 34 35  2  0  0  0
 34 36  1  0  0  0
 36 37  1  0  0  0
 36 94  1  0  0  0
 37 38  1  0  0  0
 37 43  1  0  0  0
 37 95  1  0  0  0
 38 39  1  0  0  0
 38 96  1  0  0  0
 38 97  1  0  0  0
 39 40  1  0  0  0
 39 98  1  0  0  0
 39 99  1  0  0  0
 40 41  1  0  0  0
 40100  1  0  0  0
 40101  1  0  0  0
 41102  1  0  0  0
 41103  1  0  0  0
 41104  1  0  0  0
 42 43  1  0  0  0
 42105  1  0  0  0
 43 49  1  0  0  0
 43106  1  0  0  0
 44 49  2  0  0  0
 45 46  1  0  0  0
 45 49  1  0  0  0
 45107  1  0  0  0
 46 47  1  0  0  0
 46 48  1  0  0  0
 46108  1  0  0  0
 47 48  1  0  0  0
 47109  1  0  0  0
 47110  1  0  0  0
 48111  1  0  0  0
 48112  1  0  0  0
M  END
$$$$
