@<TRIPOS>MOLECULE
DMS_2_A_402
 10 9 0 0 0
SMALL
NO_CHARGES

@<TRIPOS>ATOM
      1 S          -6.1210   -1.0020    6.3090 S.o    402  DMS402      0.0000
      2 O          -6.9870   -0.6040    7.4490 O.2    402  DMS402      0.0000
      3 C1         -7.1380   -0.9890    4.8390 C.3    402  DMS402      0.0000
      4 C2         -5.8810   -2.7470    6.4270 C.3    402  DMS402      0.0000
      5 H          -6.5651   -1.3994    3.9823 H      402  DMS402      0.0000
      6 H          -7.4320    0.0551    4.6072 H      402  DMS402      0.0000
      7 H          -8.0526   -1.5957    4.9985 H      402  DMS402      0.0000
      8 H          -5.3413   -3.1151    5.5304 H      402  DMS402      0.0000
      9 H          -6.8570   -3.2673    6.5096 H      402  DMS402      0.0000
     10 H          -5.2742   -2.9744    7.3273 H      402  DMS402      0.0000
@<TRIPOS>BOND
     1     1     2    2
     2     1     3    1
     3     1     4    1
     4     3     5    1
     5     3     6    1
     6     3     7    1
     7     4     8    1
     8     4     9    1
     9     4    10    1

