@<TRIPOS>MOLECULE
DMS_2_A_405
 10 9 0 0 0
SMALL
NO_CHARGES

@<TRIPOS>ATOM
      1 S          -6.4250    0.6200  -18.2850 S.o    405  DMS405      0.0000
      2 O          -6.6430    1.1750  -16.9220 O.2    405  DMS405      0.0000
      3 C1         -6.1650   -1.1060  -18.0720 C.3    405  DMS405      0.0000
      4 C2         -4.7720    1.0710  -18.7370 C.3    405  DMS405      0.0000
      5 H          -5.8536   -1.5625  -19.0337 H      405  DMS405      0.0000
      6 H          -7.1104   -1.5828  -17.7411 H      405  DMS405      0.0000
      7 H          -5.3827   -1.2899  -17.3070 H      405  DMS405      0.0000
      8 H          -4.4904    0.5686  -19.6849 H      405  DMS405      0.0000
      9 H          -4.0588    0.7794  -17.9387 H      405  DMS405      0.0000
     10 H          -4.7184    2.1691  -18.8849 H      405  DMS405      0.0000
@<TRIPOS>BOND
     1     1     2    2
     2     1     3    1
     3     1     4    1
     4     3     5    1
     5     3     6    1
     6     3     7    1
     7     4     8    1
     8     4     9    1
     9     4    10    1

