@<TRIPOS>MOLECULE
DMS_1_A_403
 10 9 0 0 0
SMALL
NO_CHARGES

@<TRIPOS>ATOM
      1 S           2.3290  -19.1160    7.9780 S.o    403  DMS403      0.0000
      2 O           3.6060  -18.6290    8.6610 O.2    403  DMS403      0.0000
      3 C1          1.0010  -18.1210    8.6240 C.3    403  DMS403      0.0000
      4 C2          1.9140  -20.6500    8.7920 C.3    403  DMS403      0.0000
      5 H           0.0271  -18.5268    8.2818 H      403  DMS403      0.0000
      6 H           1.1077  -17.0815    8.2521 H      403  DMS403      0.0000
      7 H           1.0298  -18.1134    9.7331 H      403  DMS403      0.0000
      8 H           0.9177  -20.9982    8.4505 H      403  DMS403      0.0000
      9 H           1.9002  -20.5103    9.8926 H      403  DMS403      0.0000
     10 H           2.6713  -21.4183    8.5337 H      403  DMS403      0.0000
@<TRIPOS>BOND
     1     1     2    2
     2     1     3    1
     3     1     4    1
     4     3     5    1
     5     3     6    1
     6     3     7    1
     7     4     8    1
     8     4     9    1
     9     4    10    1

