DMS_1_A_405
  -ISIS-            3D

 10  9  0  0  0  0  0  0  0  0  1 V2000
    6.4250    0.6200   18.2850 S   0  0  0  0  0
    6.6430    1.1750   16.9220 O   0  0  0  0  0
    6.1650   -1.1060   18.0720 C   0  0  0  0  0
    4.7720    1.0710   18.7370 C   0  0  0  0  0
    5.8536   -1.5625   19.0337 H   0  0  0  0  0
    7.1104   -1.5828   17.7411 H   0  0  0  0  0
    5.3827   -1.2899   17.3070 H   0  0  0  0  0
    4.4904    0.5686   19.6849 H   0  0  0  0  0
    4.0588    0.7794   17.9387 H   0  0  0  0  0
    4.7184    2.1691   18.8849 H   0  0  0  0  0
  1  2  2  0  0  0
  1  3  1  0  0  0
  1  4  1  0  0  0
  3  5  1  0  0  0
  3  6  1  0  0  0
  3  7  1  0  0  0
  4  8  1  0  0  0
  4  9  1  0  0  0
  4 10  1  0  0  0
M  END
$$$$
