@<TRIPOS>MOLECULE
DMS_2_A_401
 10 9 0 0 0
SMALL
NO_CHARGES

@<TRIPOS>ATOM
      1 S          -6.9450  -28.0950  -21.3180 S.o    401  DMS401      0.0000
      2 O          -7.6400  -27.1880  -22.2480 O.2    401  DMS401      0.0000
      3 C1         -5.7030  -28.8980  -22.2930 C.3    401  DMS401      0.0000
      4 C2         -5.8670  -27.1010  -20.3540 C.3    401  DMS401      0.0000
      5 H          -5.0379  -29.4972  -21.6381 H      401  DMS401      0.0000
      6 H          -5.0991  -28.1499  -22.8469 H      401  DMS401      0.0000
      7 H          -6.1908  -29.5772  -23.0218 H      401  DMS401      0.0000
      8 H          -5.2029  -27.7455  -19.7426 H      401  DMS401      0.0000
      9 H          -6.4661  -26.4619  -19.6735 H      401  DMS401      0.0000
     10 H          -5.2493  -26.4494  -21.0059 H      401  DMS401      0.0000
@<TRIPOS>BOND
     1     1     2    2
     2     1     3    1
     3     1     4    1
     4     3     5    1
     5     3     6    1
     6     3     7    1
     7     4     8    1
     8     4     9    1
     9     4    10    1

