@<TRIPOS>MOLECULE
DMS_1_A_410
 10 9 0 0 0
SMALL
NO_CHARGES

@<TRIPOS>ATOM
      1 S           0.5200  -16.5210   17.4840 S.o    410  DMS410      0.0000
      2 O           0.6160  -17.9720   17.6780 O.2    410  DMS410      0.0000
      3 C1          2.1380  -16.0350   16.9570 C.3    410  DMS410      0.0000
      4 C2          0.5690  -15.8600   19.1200 C.3    410  DMS410      0.0000
      5 H           2.2143  -14.9285   16.9497 H      410  DMS410      0.0000
      6 H           2.3191  -16.4121   15.9296 H      410  DMS410      0.0000
      7 H           2.9100  -16.4525   17.6359 H      410  DMS410      0.0000
      8 H           0.6735  -14.7566   19.0768 H      410  DMS410      0.0000
      9 H           1.4210  -16.2878   19.6877 H      410  DMS410      0.0000
     10 H          -0.3755  -16.1082   19.6461 H      410  DMS410      0.0000
@<TRIPOS>BOND
     1     1     2    2
     2     1     3    1
     3     1     4    1
     4     3     5    1
     5     3     6    1
     6     3     7    1
     7     4     8    1
     8     4     9    1
     9     4    10    1

