DMS_1_A_410
  -ISIS-            3D

 10  9  0  0  0  0  0  0  0  0  1 V2000
    0.5200  -16.5210   17.4840 S   0  0  0  0  0
    0.6160  -17.9720   17.6780 O   0  0  0  0  0
    2.1380  -16.0350   16.9570 C   0  0  0  0  0
    0.5690  -15.8600   19.1200 C   0  0  0  0  0
    2.2143  -14.9285   16.9497 H   0  0  0  0  0
    2.3191  -16.4121   15.9296 H   0  0  0  0  0
    2.9100  -16.4525   17.6359 H   0  0  0  0  0
    0.6735  -14.7566   19.0768 H   0  0  0  0  0
    1.4210  -16.2878   19.6877 H   0  0  0  0  0
   -0.3755  -16.1082   19.6461 H   0  0  0  0  0
  1  2  2  0  0  0
  1  3  1  0  0  0
  1  4  1  0  0  0
  3  5  1  0  0  0
  3  6  1  0  0  0
  3  7  1  0  0  0
  4  8  1  0  0  0
  4  9  1  0  0  0
  4 10  1  0  0  0
M  END
$$$$
