@<TRIPOS>MOLECULE
DMS_1_A_409
 10 9 0 0 0
SMALL
NO_CHARGES

@<TRIPOS>ATOM
      1 S          11.8860    2.8520   33.1950 S.o    409  DMS409      0.0000
      2 O          12.9270    3.3300   32.2770 O.2    409  DMS409      0.0000
      3 C1         10.5110    3.9270   32.9060 C.3    409  DMS409      0.0000
      4 C2         12.3480    3.4720   34.7880 C.3    409  DMS409      0.0000
      5 H           9.7265    3.7483   33.6694 H      409  DMS409      0.0000
      6 H          10.0860    3.7188   31.9027 H      409  DMS409      0.0000
      7 H          10.8311    4.9886   32.9486 H      409  DMS409      0.0000
      8 H          11.5259    3.2990   35.5121 H      409  DMS409      0.0000
      9 H          12.5688    4.5580   34.7336 H      409  DMS409      0.0000
     10 H          13.2534    2.9376   35.1417 H      409  DMS409      0.0000
@<TRIPOS>BOND
     1     1     2    2
     2     1     3    1
     3     1     4    1
     4     3     5    1
     5     3     6    1
     6     3     7    1
     7     4     8    1
     8     4     9    1
     9     4    10    1

