@<TRIPOS>MOLECULE
DMS_1_A_406
 10 9 0 0 0
SMALL
NO_CHARGES

@<TRIPOS>ATOM
      1 S          -0.7310   -2.5430   17.0070 S.o    406  DMS406      0.0000
      2 O          -0.5920   -4.0170   17.0230 O.2    406  DMS406      0.0000
      3 C1         -2.1030   -2.2200   15.9430 C.3    406  DMS406      0.0000
      4 C2          0.6030   -1.9390   16.0270 C.3    406  DMS406      0.0000
      5 H          -2.1938   -1.1282   15.7693 H      406  DMS406      0.0000
      6 H          -3.0353   -2.5865   16.4194 H      406  DMS406      0.0000
      7 H          -1.9658   -2.7361   14.9706 H      406  DMS406      0.0000
      8 H           0.4797   -0.8501   15.8557 H      406  DMS406      0.0000
      9 H           0.6310   -2.4633   15.0497 H      406  DMS406      0.0000
     10 H           1.5611   -2.1125   16.5584 H      406  DMS406      0.0000
@<TRIPOS>BOND
     1     1     2    2
     2     1     3    1
     3     1     4    1
     4     3     5    1
     5     3     6    1
     6     3     7    1
     7     4     8    1
     8     4     9    1
     9     4    10    1

