@<TRIPOS>MOLECULE
DMS_1_A_407
 10 9 0 0 0
SMALL
NO_CHARGES

@<TRIPOS>ATOM
      1 S         -24.8600  -10.3100   37.3840 S.o    407  DMS407      0.0000
      2 O         -24.4970   -9.1660   38.2420 O.2    407  DMS407      0.0000
      3 C1        -26.5940  -10.5210   37.6110 C.3    407  DMS407      0.0000
      4 C2        -24.3930  -11.7580   38.2930 C.3    407  DMS407      0.0000
      5 H         -26.9281  -11.4635   37.1309 H      407  DMS407      0.0000
      6 H         -27.1307   -9.6738   37.1367 H      407  DMS407      0.0000
      7 H         -26.8495  -10.5456   38.6902 H      407  DMS407      0.0000
      8 H         -24.7873  -12.6648   37.7903 H      407  DMS407      0.0000
      9 H         -24.7812  -11.7116   39.3311 H      407  DMS407      0.0000
     10 H         -23.2862  -11.8254   38.3279 H      407  DMS407      0.0000
@<TRIPOS>BOND
     1     1     2    2
     2     1     3    1
     3     1     4    1
     4     3     5    1
     5     3     6    1
     6     3     7    1
     7     4     8    1
     8     4     9    1
     9     4    10    1

