@<TRIPOS>MOLECULE
DMS_1_B_502
 10 9 0 0 0
SMALL
NO_CHARGES

@<TRIPOS>ATOM
      1 S          -6.9050    3.1810   12.0180 S.o    502  DMS502      0.0000
      2 O          -7.8280    2.1200   11.5310 O.2    502  DMS502      0.0000
      3 C1         -7.6130    4.6900   11.4690 C.3    502  DMS502      0.0000
      4 C2         -5.4920    3.1750   10.9430 C.3    502  DMS502      0.0000
      5 H          -6.9174    5.5299   11.6713 H      502  DMS502      0.0000
      6 H          -8.5600    4.8736   12.0167 H      502  DMS502      0.0000
      7 H          -7.8300    4.6463   10.3817 H      502  DMS502      0.0000
      8 H          -4.8441    4.0469   11.1673 H      502  DMS502      0.0000
      9 H          -5.8126    3.2156    9.8816 H      502  DMS502      0.0000
     10 H          -4.9101    2.2453   11.1082 H      502  DMS502      0.0000
@<TRIPOS>BOND
     1     1     2    2
     2     1     3    1
     3     1     4    1
     4     3     5    1
     5     3     6    1
     6     3     7    1
     7     4     8    1
     8     4     9    1
     9     4    10    1

