@<TRIPOS>MOLECULE
DMS_1_A_408
 10 9 0 0 0
SMALL
NO_CHARGES

@<TRIPOS>ATOM
      1 S         -24.2760   -3.8320    9.7400 S.o    408  DMS408      0.0000
      2 O         -23.4680   -3.8270   10.9600 O.2    408  DMS408      0.0000
      3 C1        -23.4410   -2.7020    8.6640 C.3    408  DMS408      0.0000
      4 C2        -25.6950   -2.8450   10.1160 C.3    408  DMS408      0.0000
      5 H         -24.0622   -2.5107    7.7652 H      408  DMS408      0.0000
      6 H         -22.4754   -3.1440    8.3432 H      408  DMS408      0.0000
      7 H         -23.2437   -1.7427    9.1854 H      408  DMS408      0.0000
      8 H         -26.2774   -2.6566    9.1910 H      408  DMS408      0.0000
      9 H         -25.3873   -1.8763   10.5609 H      408  DMS408      0.0000
     10 H         -26.3385   -3.3862   10.8395 H      408  DMS408      0.0000
@<TRIPOS>BOND
     1     1     2    2
     2     1     3    1
     3     1     4    1
     4     3     5    1
     5     3     6    1
     6     3     7    1
     7     4     8    1
     8     4     9    1
     9     4    10    1

