DMS_1_A_408
  -ISIS-            3D

 10  9  0  0  0  0  0  0  0  0  1 V2000
  -24.2760   -3.8320    9.7400 S   0  0  0  0  0
  -23.4680   -3.8270   10.9600 O   0  0  0  0  0
  -23.4410   -2.7020    8.6640 C   0  0  0  0  0
  -25.6950   -2.8450   10.1160 C   0  0  0  0  0
  -24.0622   -2.5107    7.7652 H   0  0  0  0  0
  -22.4754   -3.1440    8.3432 H   0  0  0  0  0
  -23.2437   -1.7427    9.1854 H   0  0  0  0  0
  -26.2774   -2.6566    9.1910 H   0  0  0  0  0
  -25.3873   -1.8763   10.5609 H   0  0  0  0  0
  -26.3385   -3.3862   10.8395 H   0  0  0  0  0
  1  2  2  0  0  0
  1  3  1  0  0  0
  1  4  1  0  0  0
  3  5  1  0  0  0
  3  6  1  0  0  0
  3  7  1  0  0  0
  4  8  1  0  0  0
  4  9  1  0  0  0
  4 10  1  0  0  0
M  END
$$$$
