DMS_1_B_407
  -ISIS-            3D

 10  9  0  0  0  0  0  0  0  0  1 V2000
   16.8620  -11.2450   -0.1410 S   0  0  0  0  0
   17.0770  -11.7560   -1.5420 O   0  0  0  0  0
   18.3360  -10.3110    0.3840 C   0  0  0  0  0
   16.9950  -12.6290    1.0380 C   0  0  0  0  0
   18.2209   -9.9996    1.4423 H   0  0  0  0  0
   18.4412   -9.4088   -0.2526 H   0  0  0  0  0
   19.2410  -10.9435    0.2767 H   0  0  0  0  0
   16.9217  -12.2419    2.0749 H   0  0  0  0  0
   17.9651  -13.1491    0.9006 H   0  0  0  0  0
   16.1664  -13.3435    0.8555 H   0  0  0  0  0
  1  2  2  0  0  0
  1  3  1  0  0  0
  1  4  1  0  0  0
  3  5  1  0  0  0
  3  6  1  0  0  0
  3  7  1  0  0  0
  4  8  1  0  0  0
  4  9  1  0  0  0
  4 10  1  0  0  0
M  END
$$$$
