DMS_1_B_405
  -ISIS-            3D

 10  9  0  0  0  0  0  0  0  0  1 V2000
  -10.7440  -21.2520   -1.6870 S   0  0  0  0  0
   -9.7890  -21.0470   -0.5400 O   0  0  0  0  0
   -9.8090  -21.6490   -3.1960 C   0  0  0  0  0
  -11.4580  -19.6620   -2.1890 C   0  0  0  0  0
  -10.5075  -21.7373   -4.0530 H   0  0  0  0  0
   -9.2806  -22.6139   -3.0544 H   0  0  0  0  0
   -9.0670  -20.8500   -3.3998 H   0  0  0  0  0
  -12.1081  -19.8099   -3.0754 H   0  0  0  0  0
  -10.6473  -18.9464   -2.4362 H   0  0  0  0  0
  -12.0652  -19.2548   -1.3548 H   0  0  0  0  0
  1  2  2  0  0  0
  1  3  1  0  0  0
  1  4  1  0  0  0
  3  5  1  0  0  0
  3  6  1  0  0  0
  3  7  1  0  0  0
  4  8  1  0  0  0
  4  9  1  0  0  0
  4 10  1  0  0  0
M  END
$$$$
