@<TRIPOS>MOLECULE
DMS_1_B_401
 10 9 0 0 0
SMALL
NO_CHARGES

@<TRIPOS>ATOM
      1 S          -6.3490    4.1550   11.7410 S.o    401  DMS401      0.0000
      2 O          -7.4850    3.4110   11.0420 O.2    401  DMS401      0.0000
      3 C1         -6.8130    5.8730   11.9060 C.3    401  DMS401      0.0000
      4 C2         -4.9170    4.2290   10.6220 C.3    401  DMS401      0.0000
      5 H          -5.9743    6.4430   12.3552 H      401  DMS401      0.0000
      6 H          -7.7015    5.9527   12.5652 H      401  DMS401      0.0000
      7 H          -7.0563    6.2959   10.9097 H      401  DMS401      0.0000
      8 H          -4.1095    4.8247   11.0945 H      401  DMS401      0.0000
      9 H          -5.2151    4.6996    9.6627 H      401  DMS401      0.0000
     10 H          -4.5498    3.2001   10.4302 H      401  DMS401      0.0000
@<TRIPOS>BOND
     1     1     2    2
     2     1     3    1
     3     1     4    1
     4     3     5    1
     5     3     6    1
     6     3     7    1
     7     4     8    1
     8     4     9    1
     9     4    10    1

