@<TRIPOS>MOLECULE
DMS_1_A_401
 10 9 0 0 0
SMALL
NO_CHARGES

@<TRIPOS>ATOM
      1 S           4.4980  -12.9470   14.9510 S.o    401  DMS401      0.0000
      2 O           4.2980  -14.4280   14.7700 O.2    401  DMS401      0.0000
      3 C1          3.5070  -12.3700   16.3620 C.3    401  DMS401      0.0000
      4 C2          3.6020  -12.0660   13.6520 C.3    401  DMS401      0.0000
      5 H           3.5831  -11.2665   16.4444 H      401  DMS401      0.0000
      6 H           3.8963  -12.8319   17.2923 H      401  DMS401      0.0000
      7 H           2.4459  -12.6628   16.2245 H      401  DMS401      0.0000
      8 H           3.6731  -10.9727   13.8248 H      401  DMS401      0.0000
      9 H           2.5366  -12.3749   13.6489 H      401  DMS401      0.0000
     10 H           4.0550  -12.3079   12.6688 H      401  DMS401      0.0000
@<TRIPOS>BOND
     1     1     2    2
     2     1     3    1
     3     1     4    1
     4     3     5    1
     5     3     6    1
     6     3     7    1
     7     4     8    1
     8     4     9    1
     9     4    10    1

