@<TRIPOS>MOLECULE
DMS_1_A_404
 10 9 0 0 0
SMALL
NO_CHARGES

@<TRIPOS>ATOM
      1 S           0.1230  -11.2470   18.9290 S.o    404  DMS404      0.0000
      2 O          -0.6540  -10.3750   19.8870 O.2    404  DMS404      0.0000
      3 C1          1.8880  -11.0200   19.2350 C.3    404  DMS404      0.0000
      4 C2         -0.0950  -10.6090   17.2450 C.3    404  DMS404      0.0000
      5 H           2.4701  -11.6110   18.4988 H      404  DMS404      0.0000
      6 H           2.1309  -11.3694   20.2593 H      404  DMS404      0.0000
      7 H           2.1502   -9.9464   19.1397 H      404  DMS404      0.0000
      8 H           0.5189  -11.2072   16.5411 H      404  DMS404      0.0000
      9 H           0.2207   -9.5464   17.2035 H      404  DMS404      0.0000
     10 H          -1.1636  -10.6883   16.9587 H      404  DMS404      0.0000
@<TRIPOS>BOND
     1     1     2    2
     2     1     3    1
     3     1     4    1
     4     3     5    1
     5     3     6    1
     6     3     7    1
     7     4     8    1
     8     4     9    1
     9     4    10    1

