@<TRIPOS>MOLECULE
DMS_1_B_406
 10 9 0 0 0
SMALL
NO_CHARGES

@<TRIPOS>ATOM
      1 S          -9.9930   20.5800   22.0670 S.o    406  DMS406      0.0000
      2 O         -10.9010   19.6650   21.3050 O.2    406  DMS406      0.0000
      3 C1         -8.4210   20.5440   21.1790 C.3    406  DMS406      0.0000
      4 C2         -9.4570   19.7390   23.5860 C.3    406  DMS406      0.0000
      5 H          -7.6595   21.1164   21.7470 H      406  DMS406      0.0000
      6 H          -8.5542   21.0098   20.1811 H      406  DMS406      0.0000
      7 H          -8.0795   19.4963   21.0508 H      406  DMS406      0.0000
      8 H          -8.6761   20.3442   24.0901 H      406  DMS406      0.0000
      9 H          -9.0522   18.7355   23.3413 H      406  DMS406      0.0000
     10 H         -10.3264   19.6273   24.2658 H      406  DMS406      0.0000
@<TRIPOS>BOND
     1     1     2    2
     2     1     3    1
     3     1     4    1
     4     3     5    1
     5     3     6    1
     6     3     7    1
     7     4     8    1
     8     4     9    1
     9     4    10    1

