DMS_1_A_404
  -ISIS-            3D

 10  9  0  0  0  0  0  0  0  0  1 V2000
    0.1230  -11.2470   18.9290 S   0  0  0  0  0
   -0.6540  -10.3750   19.8870 O   0  0  0  0  0
    1.8880  -11.0200   19.2350 C   0  0  0  0  0
   -0.0950  -10.6090   17.2450 C   0  0  0  0  0
    2.4701  -11.6110   18.4988 H   0  0  0  0  0
    2.1309  -11.3694   20.2593 H   0  0  0  0  0
    2.1502   -9.9464   19.1397 H   0  0  0  0  0
    0.5189  -11.2072   16.5411 H   0  0  0  0  0
    0.2207   -9.5464   17.2035 H   0  0  0  0  0
   -1.1636  -10.6883   16.9587 H   0  0  0  0  0
  1  2  2  0  0  0
  1  3  1  0  0  0
  1  4  1  0  0  0
  3  5  1  0  0  0
  3  6  1  0  0  0
  3  7  1  0  0  0
  4  8  1  0  0  0
  4  9  1  0  0  0
  4 10  1  0  0  0
M  END
$$$$
