@<TRIPOS>MOLECULE
DMS_1_B_405
 10 9 0 0 0
SMALL
NO_CHARGES

@<TRIPOS>ATOM
      1 S         -10.7440  -21.2520   -1.6870 S.o    405  DMS405      0.0000
      2 O          -9.7890  -21.0470   -0.5400 O.2    405  DMS405      0.0000
      3 C1         -9.8090  -21.6490   -3.1960 C.3    405  DMS405      0.0000
      4 C2        -11.4580  -19.6620   -2.1890 C.3    405  DMS405      0.0000
      5 H         -10.5075  -21.7373   -4.0530 H      405  DMS405      0.0000
      6 H          -9.2806  -22.6139   -3.0544 H      405  DMS405      0.0000
      7 H          -9.0670  -20.8500   -3.3998 H      405  DMS405      0.0000
      8 H         -12.1081  -19.8099   -3.0754 H      405  DMS405      0.0000
      9 H         -10.6473  -18.9464   -2.4362 H      405  DMS405      0.0000
     10 H         -12.0652  -19.2548   -1.3548 H      405  DMS405      0.0000
@<TRIPOS>BOND
     1     1     2    2
     2     1     3    1
     3     1     4    1
     4     3     5    1
     5     3     6    1
     6     3     7    1
     7     4     8    1
     8     4     9    1
     9     4    10    1

