@<TRIPOS>MOLECULE
DMS_1_B_403
 10 9 0 0 0
SMALL
NO_CHARGES

@<TRIPOS>ATOM
      1 S         -12.4150   -0.2740   -7.9250 S.o    403  DMS403      0.0000
      2 O         -10.9470   -0.1920   -8.1640 O.2    403  DMS403      0.0000
      3 C1        -13.0410   -1.7200   -8.8320 C.3    403  DMS403      0.0000
      4 C2        -13.3060    1.1240   -8.7020 C.3    403  DMS403      0.0000
      5 H         -14.1389   -1.7950   -8.6933 H      403  DMS403      0.0000
      6 H         -12.5577   -2.6373   -8.4379 H      403  DMS403      0.0000
      7 H         -12.8087   -1.6136   -9.9115 H      403  DMS403      0.0000
      8 H         -14.3972    0.9928   -8.5532 H      403  DMS403      0.0000
      9 H         -13.0773    1.1539   -9.7870 H      403  DMS403      0.0000
     10 H         -12.9802    2.0723   -8.2278 H      403  DMS403      0.0000
@<TRIPOS>BOND
     1     1     2    2
     2     1     3    1
     3     1     4    1
     4     3     5    1
     5     3     6    1
     6     3     7    1
     7     4     8    1
     8     4     9    1
     9     4    10    1

