2AK_1_A_201
  -ISIS-            3D

 18 19  0  0  0  0  0  0  0  0  1 V2000
    3.7700   18.3810   -9.0960 Br  0  0  0  0  0
    3.2070   16.7610  -10.0040 C   0  0  0  0  0
    3.4980   16.5830  -11.3630 C   0  0  0  0  0
    3.1140   15.3860  -12.0200 C   0  0  0  0  0
    3.4310   15.1930  -13.5010 C   0  0  0  0  0
    2.4440   14.3800  -11.3100 C   0  0  0  0  0
    2.5380   15.7570   -9.2930 C   0  0  0  0  0
    2.0960   15.6640   -7.8450 N   0  0  0  0  0
    1.4400   14.3850   -7.6550 C   0  0  0  0  0
    0.9040   14.0200   -6.6640 O   0  0  0  0  0
    1.4590   13.6720   -8.9430 C   0  0  0  0  0
    2.1530   14.5560   -9.9520 C   0  0  0  0  0
    0.9410   12.6300   -9.1700 O   0  0  0  0  0
    4.0291   17.3676  -11.9260 H   0  0  0  0  0
    3.0724   14.2113  -13.8815 H   0  0  0  0  0
    4.5283   15.2397  -13.6817 H   0  0  0  0  0
    2.9491   15.9852  -14.1168 H   0  0  0  0  0
    2.1414   13.4464  -11.8104 H   0  0  0  0  0
  1  2  1  0  0  0
  2  3  2  0  0  0
  2  7  1  0  0  0
  3  4  1  0  0  0
  3 14  1  0  0  0
  4  5  1  0  0  0
  4  6  2  0  0  0
  5 15  1  0  0  0
  5 16  1  0  0  0
  5 17  1  0  0  0
  6 12  1  0  0  0
  6 18  1  0  0  0
  7  8  1  0  0  0
  7 12  2  0  0  0
  8  9  1  0  0  0
  9 10  2  0  0  0
  9 11  1  0  0  0
 11 12  1  0  0  0
 11 13  2  0  0  0
M  END
$$$$
