@<TRIPOS>MOLECULE
DMS_1_B_704
 10 9 0 0 0
SMALL
NO_CHARGES

@<TRIPOS>ATOM
      1 S          20.4370  -21.2680  -24.2960 S.o    704  DMS704      0.0000
      2 O          21.1990  -20.1440  -23.6280 O.2    704  DMS704      0.0000
      3 C1         20.1880  -22.5140  -23.0530 C.3    704  DMS704      0.0000
      4 C2         18.7450  -20.7340  -24.4370 C.3    704  DMS704      0.0000
      5 H          19.5189  -23.3074  -23.4440 H      704  DMS704      0.0000
      6 H          19.7395  -22.0670  -22.1419 H      704  DMS704      0.0000
      7 H          21.1652  -22.9678  -22.7890 H      704  DMS704      0.0000
      8 H          18.1140  -21.5731  -24.7945 H      704  DMS704      0.0000
      9 H          18.6839  -19.9028  -25.1689 H      704  DMS704      0.0000
     10 H          18.3688  -20.3794  -23.4553 H      704  DMS704      0.0000
@<TRIPOS>BOND
     1     1     2    2
     2     1     3    1
     3     1     4    1
     4     3     5    1
     5     3     6    1
     6     3     7    1
     7     4     8    1
     8     4     9    1
     9     4    10    1

