DMS_1_B_701
  -ISIS-            3D

 10  9  0  0  0  0  0  0  0  0  1 V2000
   20.8480   -9.4870   -8.3310 S   0  0  0  0  0
   21.6150  -10.1400   -9.4470 O   0  0  0  0  0
   21.0570   -7.7330   -8.5400 C   0  0  0  0  0
   21.8410   -9.6790   -6.8690 C   0  0  0  0  0
   20.6328   -7.1970   -7.6663 H   0  0  0  0  0
   20.5213   -7.4069   -9.4550 H   0  0  0  0  0
   22.1323   -7.4816   -8.6420 H   0  0  0  0  0
   21.3989   -9.0965   -6.0348 H   0  0  0  0  0
   22.8765   -9.3289   -7.0565 H   0  0  0  0  0
   21.8681  -10.7503   -6.5827 H   0  0  0  0  0
  1  2  2  0  0  0
  1  3  1  0  0  0
  1  4  1  0  0  0
  3  5  1  0  0  0
  3  6  1  0  0  0
  3  7  1  0  0  0
  4  8  1  0  0  0
  4  9  1  0  0  0
  4 10  1  0  0  0
M  END
$$$$
