@<TRIPOS>MOLECULE
DMS_1_A_601
 10 9 0 0 0
SMALL
NO_CHARGES

@<TRIPOS>ATOM
      1 S           6.9190    3.8870  -11.1490 S.o    601  DMS601      0.0000
      2 O           7.3010    4.6140  -12.4110 O.2    601  DMS601      0.0000
      3 C1          5.1540    3.9710  -11.0460 C.3    601  DMS601      0.0000
      4 C2          7.0930    2.1490  -11.4820 C.3    601  DMS601      0.0000
      5 H           4.7961    3.3431  -10.2046 H      601  DMS601      0.0000
      6 H           4.6952    3.6165  -11.9918 H      601  DMS601      0.0000
      7 H           4.8455    5.0211  -10.8659 H      601  DMS601      0.0000
      8 H           6.6955    1.5616  -10.6292 H      601  DMS601      0.0000
      9 H           8.1671    1.9066  -11.6157 H      601  DMS601      0.0000
     10 H           6.5427    1.8775  -12.4062 H      601  DMS601      0.0000
@<TRIPOS>BOND
     1     1     2    2
     2     1     3    1
     3     1     4    1
     4     3     5    1
     5     3     6    1
     6     3     7    1
     7     4     8    1
     8     4     9    1
     9     4    10    1

