DMS_1_A_601
  -ISIS-            3D

 10  9  0  0  0  0  0  0  0  0  1 V2000
    6.9190    3.8870  -11.1490 S   0  0  0  0  0
    7.3010    4.6140  -12.4110 O   0  0  0  0  0
    5.1540    3.9710  -11.0460 C   0  0  0  0  0
    7.0930    2.1490  -11.4820 C   0  0  0  0  0
    4.7961    3.3431  -10.2046 H   0  0  0  0  0
    4.6952    3.6165  -11.9918 H   0  0  0  0  0
    4.8455    5.0211  -10.8659 H   0  0  0  0  0
    6.6955    1.5616  -10.6292 H   0  0  0  0  0
    8.1671    1.9066  -11.6157 H   0  0  0  0  0
    6.5427    1.8775  -12.4062 H   0  0  0  0  0
  1  2  2  0  0  0
  1  3  1  0  0  0
  1  4  1  0  0  0
  3  5  1  0  0  0
  3  6  1  0  0  0
  3  7  1  0  0  0
  4  8  1  0  0  0
  4  9  1  0  0  0
  4 10  1  0  0  0
M  END
$$$$
