@<TRIPOS>MOLECULE
EDO_1_A_401
 10 9 0 0 0
SMALL
NO_CHARGES

@<TRIPOS>ATOM
      1 C1        -15.5860   -8.1720   27.4210 C.3    401  EDO401      0.0000
      2 O1        -14.9970   -6.8680   27.3190 O.3    401  EDO401      0.0000
      3 C2        -14.6020   -9.1080   28.1110 C.3    401  EDO401      0.0000
      4 O2        -13.3640   -9.1050   27.3880 O.3    401  EDO401      0.0000
      5 H         -15.8403   -8.5427   26.4060 H      401  EDO401      0.0000
      6 H         -16.5321   -8.1007   27.9958 H      401  EDO401      0.0000
      7 H         -14.0880   -7.0007   27.0741 H      401  EDO401      0.0000
      8 H         -15.0107  -10.1386   28.1733 H      401  EDO401      0.0000
      9 H         -14.4103   -8.7686   29.1502 H      401  EDO401      0.0000
     10 H         -13.3861   -9.8055   26.7493 H      401  EDO401      0.0000
@<TRIPOS>BOND
     1     1     2    1
     2     1     3    1
     3     1     5    1
     4     1     6    1
     5     2     7    1
     6     3     4    1
     7     3     8    1
     8     3     9    1
     9     4    10    1

