@<TRIPOS>MOLECULE
PYD_1_A_201
 18 18 0 0 0
SMALL
NO_CHARGES

@<TRIPOS>ATOM
      1 N1'       -45.4800  -29.1260    4.5840 N.ar   201  PYD201      0.0000
      2 C2'       -45.1740  -29.0940    5.8660 C.ar   201  PYD201      0.0000
      3 CM2       -43.7290  -29.1740    6.3230 C.3    201  PYD201      0.0000
      4 N3'       -46.0820  -28.9860    6.7950 N.ar   201  PYD201      0.0000
      5 C4'       -47.3400  -28.8810    6.4700 C.ar   201  PYD201      0.0000
      6 N4'       -48.3400  -28.7470    7.4880 N.3    201  PYD201      0.0000
      7 C5'       -47.7190  -28.9030    5.1390 C.ar   201  PYD201      0.0000
      8 C6'       -46.7440  -29.0330    4.1790 C.ar   201  PYD201      0.0000
      9 C7'       -49.2220  -28.7960    4.8420 C.3    201  PYD201      0.0000
     10 H         -43.6411  -29.1343    7.4314 H      201  PYD201      0.0000
     11 H         -43.1341  -28.3300    5.9086 H      201  PYD201      0.0000
     12 H         -43.2568  -30.1222    5.9826 H      201  PYD201      0.0000
     13 H         -47.9515  -28.7462    8.4394 H      201  PYD201      0.0000
     14 H         -49.3332  -28.6628    7.2464 H      201  PYD201      0.0000
     15 H         -46.9769  -29.0628    3.1030 H      201  PYD201      0.0000
     16 H         -49.4088  -28.8285    3.7458 H      201  PYD201      0.0000
     17 H         -49.6497  -27.8363    5.2082 H      201  PYD201      0.0000
     18 H         -49.7934  -29.6408    5.2869 H      201  PYD201      0.0000
@<TRIPOS>BOND
     1     1     2   ar
     2     1     8   ar
     3     2     3    1
     4     2     4   ar
     5     3    10    1
     6     3    11    1
     7     3    12    1
     8     4     5   ar
     9     5     6    1
    10     5     7   ar
    11     6    13    1
    12     6    14    1
    13     7     8   ar
    14     7     9    1
    15     8    15    1
    16     9    16    1
    17     9    17    1
    18     9    18    1

