@<TRIPOS>MOLECULE
4JO_1_A_201
 16 16 0 0 0
SMALL
NO_CHARGES

@<TRIPOS>ATOM
      1 BR        -49.2540  -29.0540    8.0180 Br     201  4JO201      0.0000
      2 C5        -49.4260  -28.9750    6.1060 C.ar   201  4JO201      0.0000
      3 C1        -50.6340  -29.1790    5.4470 C.ar   201  4JO201      0.0000
      4 C         -51.8770  -29.5200    6.2620 C.3    201  4JO201      0.0000
      5 C4        -48.3080  -28.6650    5.3510 C.ar   201  4JO201      0.0000
      6 C3        -48.4330  -28.6150    3.9860 C.ar   201  4JO201      0.0000
      7 C2        -49.6660  -28.8190    3.4070 C.ar   201  4JO201      0.0000
      8 N         -50.7150  -29.1000    4.1400 N.ar   201  4JO201      0.0000
      9 N1        -49.7830  -28.7130    1.9750 N.3    201  4JO201      0.0000
     10 H         -52.7620  -29.6565    5.6016 H      201  4JO201      0.0000
     11 H         -52.1310  -28.7102    6.9813 H      201  4JO201      0.0000
     12 H         -51.7467  -30.4673    6.8307 H      201  4JO201      0.0000
     13 H         -47.3322  -28.4734    5.8272 H      201  4JO201      0.0000
     14 H         -47.5515  -28.3931    3.3629 H      201  4JO201      0.0000
     15 H         -50.7322  -28.8731    1.6157 H      201  4JO201      0.0000
     16 H         -48.9363  -28.4923    1.4356 H      201  4JO201      0.0000
@<TRIPOS>BOND
     1     1     2    1
     2     2     3   ar
     3     2     5   ar
     4     3     4    1
     5     3     8   ar
     6     4    10    1
     7     4    11    1
     8     4    12    1
     9     5     6   ar
    10     5    13    1
    11     6     7   ar
    12     6    14    1
    13     7     8   ar
    14     7     9    1
    15     9    15    1
    16     9    16    1

