@<TRIPOS>MOLECULE
FMT_1_A_404
 3 2 0 0 0
SMALL
NO_CHARGES

@<TRIPOS>ATOM
      1 C         -38.4530  112.9550   19.7070 C.2    404  FMT404      0.0000
      2 O1        -39.5160  113.5750   19.6060 O.2    404  FMT404      0.0000
      3 O2        -38.1490  111.9840   19.0070 O.2    404  FMT404     -0.5000
@<TRIPOS>BOND
     1     1     2   ar
     2     1     3   ar

