@<TRIPOS>MOLECULE
FMT_3_A_403
 3 2 0 0 0
SMALL
NO_CHARGES

@<TRIPOS>ATOM
      1 C          29.0210   86.6220   29.7970 C.2    403  FMT403      0.0000
      2 O1         27.8560   86.8900   30.1340 O.2    403  FMT403      0.0000
      3 O2         29.4740   85.4850   29.5850 O.2    403  FMT403     -0.5000
@<TRIPOS>BOND
     1     1     2   ar
     2     1     3   ar

