@<TRIPOS>MOLECULE
EDO_1_A_202
 10 9 0 0 0
SMALL
NO_CHARGES

@<TRIPOS>ATOM
      1 C1        -16.4380    8.0770    2.1010 C.3    202  EDO202      0.0000
      2 O1        -16.9160    7.2980    1.0290 O.3    202  EDO202      0.0000
      3 C2        -17.1730    7.7910    3.3060 C.3    202  EDO202      0.0000
      4 O2        -18.5210    7.5220    3.0200 O.3    202  EDO202      0.0000
      5 H         -16.5561    9.1503    1.8355 H      202  EDO202      0.0000
      6 H         -15.3503    7.9017    2.2415 H      202  EDO202      0.0000
      7 H         -16.4967    7.5885    0.2290 H      202  EDO202      0.0000
      8 H         -17.0995    8.6304    4.0296 H      202  EDO202      0.0000
      9 H         -16.7360    6.9001    3.8078 H      202  EDO202      0.0000
     10 H         -18.9507    7.2296    3.8138 H      202  EDO202      0.0000
@<TRIPOS>BOND
     1     1     2    1
     2     1     3    1
     3     1     5    1
     4     1     6    1
     5     2     7    1
     6     3     4    1
     7     3     8    1
     8     3     9    1
     9     4    10    1

