EDO_1_A_205
  -ISIS-            3D

 10  9  0  0  0  0  0  0  0  0  1 V2000
  -11.0760   -5.6820  -13.3930 C   0  0  0  0  0
  -11.5440   -5.8700  -14.7210 O   0  0  0  0  0
  -10.5340   -4.3240  -13.1700 C   0  0  0  0  0
   -9.9800   -3.7480  -14.3400 O   0  0  0  0  0
  -10.2818   -6.4358  -13.2042 H   0  0  0  0  0
  -11.8955   -5.9090  -12.6803 H   0  0  0  0  0
  -10.9880   -5.3439  -15.2849 H   0  0  0  0  0
   -9.7712   -4.3390  -12.3626 H   0  0  0  0  0
  -11.3526   -3.6608  -12.8147 H   0  0  0  0  0
   -9.6731   -2.8761  -14.1302 H   0  0  0  0  0
  1  2  1  0  0  0
  1  3  1  0  0  0
  1  5  1  0  0  0
  1  6  1  0  0  0
  2  7  1  0  0  0
  3  4  1  0  0  0
  3  8  1  0  0  0
  3  9  1  0  0  0
  4 10  1  0  0  0
M  END
$$$$
