EDO_1_A_203
  -ISIS-            3D

 10  9  0  0  0  0  0  0  0  0  1 V2000
  -25.2630   14.8190    0.6510 C   0  0  0  0  0
  -26.1340   15.6640    1.3630 O   0  0  0  0  0
  -25.9860   13.9010   -0.2560 C   0  0  0  0  0
  -26.4640   12.7620    0.4160 O   0  0  0  0  0
  -24.6436   14.2476    1.3730 H   0  0  0  0  0
  -24.5546   15.4492    0.0706 H   0  0  0  0  0
  -26.4882   16.3155    0.7716 H   0  0  0  0  0
  -25.2982   13.5637   -1.0617 H   0  0  0  0  0
  -26.8264   14.4230   -0.7609 H   0  0  0  0  0
  -26.9615   12.2325   -0.1934 H   0  0  0  0  0
  1  2  1  0  0  0
  1  3  1  0  0  0
  1  5  1  0  0  0
  1  6  1  0  0  0
  2  7  1  0  0  0
  3  4  1  0  0  0
  3  8  1  0  0  0
  3  9  1  0  0  0
  4 10  1  0  0  0
M  END
$$$$
