EDO_1_A_202
  -ISIS-            3D

 10  9  0  0  0  0  0  0  0  0  1 V2000
  -16.4380    8.0770    2.1010 C   0  0  0  0  0
  -16.9160    7.2980    1.0290 O   0  0  0  0  0
  -17.1730    7.7910    3.3060 C   0  0  0  0  0
  -18.5210    7.5220    3.0200 O   0  0  0  0  0
  -16.5561    9.1503    1.8355 H   0  0  0  0  0
  -15.3503    7.9017    2.2415 H   0  0  0  0  0
  -16.4967    7.5885    0.2290 H   0  0  0  0  0
  -17.0995    8.6304    4.0296 H   0  0  0  0  0
  -16.7360    6.9001    3.8078 H   0  0  0  0  0
  -18.9507    7.2296    3.8138 H   0  0  0  0  0
  1  2  1  0  0  0
  1  3  1  0  0  0
  1  5  1  0  0  0
  1  6  1  0  0  0
  2  7  1  0  0  0
  3  4  1  0  0  0
  3  8  1  0  0  0
  3  9  1  0  0  0
  4 10  1  0  0  0
M  END
$$$$
