DMS_2_A_404
  -ISIS-            3D

 10  9  0  0  0  0  0  0  0  0  1 V2000
  -20.9710   14.5880   -7.5140 S   0  0  0  0  0
  -22.2520   15.2690   -7.7470 O   0  0  0  0  0
  -20.9930   13.1870   -8.5880 C   0  0  0  0  0
  -21.2050   13.7370   -5.9830 C   0  0  0  0  0
  -20.1386   12.5196   -8.3538 H   0  0  0  0  0
  -20.9011   13.5280   -9.6395 H   0  0  0  0  0
  -21.9420   12.6236   -8.4738 H   0  0  0  0  0
  -20.3495   13.0562   -5.7963 H   0  0  0  0  0
  -22.1454   13.1485   -6.0042 H   0  0  0  0  0
  -21.2602   14.4748   -5.1564 H   0  0  0  0  0
  1  2  2  0  0  0
  1  3  1  0  0  0
  1  4  1  0  0  0
  3  5  1  0  0  0
  3  6  1  0  0  0
  3  7  1  0  0  0
  4  8  1  0  0  0
  4  9  1  0  0  0
  4 10  1  0  0  0
M  END
$$$$
