@<TRIPOS>MOLECULE
DMS_2_A_401
 10 9 0 0 0
SMALL
NO_CHARGES

@<TRIPOS>ATOM
      1 S          -7.0490  -28.1550  -21.4280 S.o    401  DMS401      0.0000
      2 O          -7.7190  -27.1090  -22.2300 O.2    401  DMS401      0.0000
      3 C1         -5.8630  -28.8260  -22.5410 C.3    401  DMS401      0.0000
      4 C2         -5.9530  -27.2930  -20.3640 C.3    401  DMS401      0.0000
      5 H          -5.1849  -29.5159  -21.9982 H      401  DMS401      0.0000
      6 H          -5.2650  -28.0172  -23.0091 H      401  DMS401      0.0000
      7 H          -6.3849  -29.3946  -23.3377 H      401  DMS401      0.0000
      8 H          -5.2802  -28.0116  -19.8527 H      401  DMS401      0.0000
      9 H          -6.5381  -26.7460  -19.5966 H      401  DMS401      0.0000
     10 H          -5.3439  -26.5647  -20.9377 H      401  DMS401      0.0000
@<TRIPOS>BOND
     1     1     2    2
     2     1     3    1
     3     1     4    1
     4     3     5    1
     5     3     6    1
     6     3     7    1
     7     4     8    1
     8     4     9    1
     9     4    10    1

