@<TRIPOS>MOLECULE
DMS_1_A_403
 10 9 0 0 0
SMALL
NO_CHARGES

@<TRIPOS>ATOM
      1 S           2.3800  -19.0270    8.2120 S.o    403  DMS403      0.0000
      2 O           3.6190  -18.6500    8.9270 O.2    403  DMS403      0.0000
      3 C1          1.1070  -18.0390    8.9390 C.3    403  DMS403      0.0000
      4 C2          1.9150  -20.5720    8.9630 C.3    403  DMS403      0.0000
      5 H           0.1135  -18.3884    8.5911 H      403  DMS403      0.0000
      6 H           1.2410  -16.9822    8.6298 H      403  DMS403      0.0000
      7 H           1.1516  -18.0979   10.0461 H      403  DMS403      0.0000
      8 H           0.9017  -20.8664    8.6212 H      403  DMS403      0.0000
      9 H           1.9206  -20.4847   10.0692 H      403  DMS403      0.0000
     10 H           2.6361  -21.3586    8.6599 H      403  DMS403      0.0000
@<TRIPOS>BOND
     1     1     2    2
     2     1     3    1
     3     1     4    1
     4     3     5    1
     5     3     6    1
     6     3     7    1
     7     4     8    1
     8     4     9    1
     9     4    10    1

