@<TRIPOS>MOLECULE
BDF_1_B_4403
 24 24 0 0 0
SMALL
NO_CHARGES

@<TRIPOS>ATOM
      1 C1         64.9810   20.5620   19.3550 C.3   4403  BDF4403      0.0000
      2 C2         65.2630   21.5640   20.4670 C.3   4403  BDF4403      0.0000
      3 C3         66.7660   21.8470   20.6230 C.3   4403  BDF4403      0.0000
      4 C4         67.0130   22.7590   21.8190 C.3   4403  BDF4403      0.0000
      5 C5         66.4150   22.1480   23.0760 C.3   4403  BDF4403      0.0000
      6 C6         64.9550   21.7970   22.8420 C.3   4403  BDF4403      0.0000
      7 O1         65.7440   19.3760   19.5180 O.3   4403  BDF4403      0.0000
      8 O2         64.5960   22.7700   20.1870 O.3   4403  BDF4403      0.0000
      9 O3         67.2600   22.4450   19.4320 O.3   4403  BDF4403      0.0000
     10 O4         68.4180   22.9720   21.9860 O.3   4403  BDF4403      0.0000
     11 O5         67.1310   20.9660   23.4440 O.3   4403  BDF4403      0.0000
     12 O6         64.7730   20.9750   21.6750 O.3   4403  BDF4403      0.0000
     13 H          65.2113   21.0023   18.3636 H     4403  BDF4403      0.0000
     14 H          63.9007   20.3057   19.3414 H     4403  BDF4403      0.0000
     15 H          67.3036   20.8908   20.8004 H     4403  BDF4403      0.0000
     16 H          66.5263   23.7425   21.6369 H     4403  BDF4403      0.0000
     17 H          66.4829   22.8807   23.9100 H     4403  BDF4403      0.0000
     18 H          64.3445   22.7185   22.7448 H     4403  BDF4403      0.0000
     19 H          64.5506   21.2529   23.7205 H     4403  BDF4403      0.0000
     20 H          65.3392   18.6813   19.0164 H     4403  BDF4403      0.0000
     21 H          63.6626   22.6077   20.1559 H     4403  BDF4403      0.0000
     22 H          67.4756   21.7518   18.8215 H     4403  BDF4403      0.0000
     23 H          68.7452   23.2447   21.1371 H     4403  BDF4403      0.0000
     24 H          68.0541   21.1820   23.3738 H     4403  BDF4403      0.0000
@<TRIPOS>BOND
     1     1     2    1
     2     1     7    1
     3     1    13    1
     4     1    14    1
     5     2     3    1
     6     2     8    1
     7     2    12    1
     8     3     4    1
     9     3     9    1
    10     3    15    1
    11     4     5    1
    12     4    10    1
    13     4    16    1
    14     5     6    1
    15     5    11    1
    16     5    17    1
    17     6    12    1
    18     6    18    1
    19     6    19    1
    20     7    20    1
    21     8    21    1
    22     9    22    1
    23    10    23    1
    24    11    24    1

