BDF_1_B_4403
  -ISIS-            3D

 24 24  0  0  0  0  0  0  0  0  1 V2000
   64.9810   20.5620   19.3550 C   0  0  0  0  0
   65.2630   21.5640   20.4670 C   0  0  0  0  0
   66.7660   21.8470   20.6230 C   0  0  0  0  0
   67.0130   22.7590   21.8190 C   0  0  0  0  0
   66.4150   22.1480   23.0760 C   0  0  0  0  0
   64.9550   21.7970   22.8420 C   0  0  0  0  0
   65.7440   19.3760   19.5180 O   0  0  0  0  0
   64.5960   22.7700   20.1870 O   0  0  0  0  0
   67.2600   22.4450   19.4320 O   0  0  0  0  0
   68.4180   22.9720   21.9860 O   0  0  0  0  0
   67.1310   20.9660   23.4440 O   0  0  0  0  0
   64.7730   20.9750   21.6750 O   0  0  0  0  0
   65.2113   21.0023   18.3636 H   0  0  0  0  0
   63.9007   20.3057   19.3414 H   0  0  0  0  0
   67.3036   20.8908   20.8004 H   0  0  0  0  0
   66.5263   23.7425   21.6369 H   0  0  0  0  0
   66.4829   22.8807   23.9100 H   0  0  0  0  0
   64.3445   22.7185   22.7448 H   0  0  0  0  0
   64.5506   21.2529   23.7205 H   0  0  0  0  0
   65.3392   18.6813   19.0164 H   0  0  0  0  0
   63.6626   22.6077   20.1559 H   0  0  0  0  0
   67.4756   21.7518   18.8215 H   0  0  0  0  0
   68.7452   23.2447   21.1371 H   0  0  0  0  0
   68.0541   21.1820   23.3738 H   0  0  0  0  0
  1  2  1  0  0  0
  1  7  1  0  0  0
  1 13  1  0  0  0
  1 14  1  0  0  0
  2  3  1  0  0  0
  2  8  1  0  0  0
  2 12  1  0  0  0
  3  4  1  0  0  0
  3  9  1  0  0  0
  3 15  1  0  0  0
  4  5  1  0  0  0
  4 10  1  0  0  0
  4 16  1  0  0  0
  5  6  1  0  0  0
  5 11  1  0  0  0
  5 17  1  0  0  0
  6 12  1  0  0  0
  6 18  1  0  0  0
  6 19  1  0  0  0
  7 20  1  0  0  0
  8 21  1  0  0  0
  9 22  1  0  0  0
 10 23  1  0  0  0
 11 24  1  0  0  0
M  END
$$$$
