FMT_1_A_7103
  -ISIS-            3D

  4  3  0  0  0  0  0  0  0  0  1 V2000
  101.1070   11.0280    8.2260 C   0  0  0  0  0
  100.3630   10.9370    7.2710 O   0  0  0  0  0
  101.1250   12.0220    9.0710 O   0  0  0  0  0
  101.8596   10.1714    8.4060 H   0  0  0  0  0
  1  2  2  0  0  0
  1  3  1  0  0  0
  1  4  1  0  0  0
M  END
$$$$
