DMS_1_A_402
  -ISIS-            3D

 10  9  0  0  0  0  0  0  0  0  1 V2000
    6.1380   -1.0280   -6.2540 S   0  0  0  0  0
    7.0320   -0.8940   -7.4260 O   0  0  0  0  0
    7.1800   -0.8300   -4.8300 C   0  0  0  0  0
    5.8040   -2.7560   -6.0580 C   0  0  0  0  0
    6.6050   -1.0539   -3.9084 H   0  0  0  0  0
    7.5386    0.2188   -4.7812 H   0  0  0  0  0
    8.0561   -1.5083   -4.8930 H   0  0  0  0  0
    5.2594   -2.9293   -5.1079 H   0  0  0  0  0
    6.7501   -3.3360   -6.0528 H   0  0  0  0  0
    5.1723   -3.1050   -6.9004 H   0  0  0  0  0
  1  2  2  0  0  0
  1  3  1  0  0  0
  1  4  1  0  0  0
  3  5  1  0  0  0
  3  6  1  0  0  0
  3  7  1  0  0  0
  4  8  1  0  0  0
  4  9  1  0  0  0
  4 10  1  0  0  0
M  END
$$$$
