@<TRIPOS>MOLECULE
DMS_1_A_405
 10 9 0 0 0
SMALL
NO_CHARGES

@<TRIPOS>ATOM
      1 S           6.1750    0.1520   18.2470 S.o    405  DMS405      0.0000
      2 O           4.6830    0.1900   18.1390 O.2    405  DMS405      0.0000
      3 C1          6.7420    1.4430   17.1890 C.3    405  DMS405      0.0000
      4 C2          6.5520    0.9140   19.8020 C.3    405  DMS405      0.0000
      5 H           7.8323    1.5927   17.3278 H      405  DMS405      0.0000
      6 H           6.2094    2.3905   17.4112 H      405  DMS405      0.0000
      7 H           6.5526    1.1624   16.1326 H      405  DMS405      0.0000
      8 H           7.6465    1.0722   19.8880 H      405  DMS405      0.0000
      9 H           6.2213    0.2490   20.6260 H      405  DMS405      0.0000
     10 H           6.0302    1.8887   19.8932 H      405  DMS405      0.0000
@<TRIPOS>BOND
     1     1     2    2
     2     1     3    1
     3     1     4    1
     4     3     5    1
     5     3     6    1
     6     3     7    1
     7     4     8    1
     8     4     9    1
     9     4    10    1

