@<TRIPOS>MOLECULE
DMS_2_A_403
 10 9 0 0 0
SMALL
NO_CHARGES

@<TRIPOS>ATOM
      1 S          -2.3390  -19.0770   -8.0350 S.o    403  DMS403      0.0000
      2 O          -3.6700  -18.5690   -8.5240 O.2    403  DMS403      0.0000
      3 C1         -1.1030  -18.2290   -8.9990 C.3    403  DMS403      0.0000
      4 C2         -2.1490  -20.6870   -8.7900 C.3    403  DMS403      0.0000
      5 H          -0.1051  -18.6724   -8.8044 H      403  DMS403      0.0000
      6 H          -1.0827  -17.1590   -8.7072 H      403  DMS403      0.0000
      7 H          -1.3373  -18.3043  -10.0807 H      403  DMS403      0.0000
      8 H          -1.1246  -21.0699   -8.6047 H      403  DMS403      0.0000
      9 H          -2.3295  -20.6251   -9.8828 H      403  DMS403      0.0000
     10 H          -2.8810  -21.3894   -8.3413 H      403  DMS403      0.0000
@<TRIPOS>BOND
     1     1     2    2
     2     1     3    1
     3     1     4    1
     4     3     5    1
     5     3     6    1
     6     3     7    1
     7     4     8    1
     8     4     9    1
     9     4    10    1

