@<TRIPOS>MOLECULE
SAM_1_A_301
 50 52 0 0 0
SMALL
NO_CHARGES

@<TRIPOS>ATOM
      1 N         -86.7240   19.4480   24.4840 N.3    301  SAM301      1.0000
      2 CA        -88.0150   19.0560   24.9550 C.3    301  SAM301      0.0000
      3 C         -89.0120   19.9220   24.2790 C.2    301  SAM301      0.0000
      4 O         -88.8280   20.2210   23.0990 O.co2  301  SAM301     -0.5000
      5 OXT       -89.9910   20.2950   24.9140 O.co2  301  SAM301     -0.5000
      6 CB        -88.0640   19.2140   26.4560 C.3    301  SAM301      0.0000
      7 CG        -86.8730   18.4920   27.0470 C.3    301  SAM301      0.0000
      8 SD        -87.1340   18.0220   28.5950 S.3    301  SAM301      0.0000
      9 CE        -87.4160   19.3460   29.4990 C.3    301  SAM301      0.0000
     10 C5'       -85.7710   17.3010   29.2110 C.3    301  SAM301      0.0000
     11 C4'       -85.4830   15.9710   28.5360 C.3    301  SAM301      0.0000
     12 O4'       -84.1650   15.5220   28.7720 O.3    301  SAM301      0.0000
     13 C3'       -86.3930   14.8870   29.0490 C.3    301  SAM301      0.0000
     14 O3'       -87.2220   14.5060   27.9710 O.3    301  SAM301      0.0000
     15 C2'       -85.4550   13.7890   29.4780 C.3    301  SAM301      0.0000
     16 O2'       -85.9480   12.5150   29.1300 O.3    301  SAM301      0.0000
     17 C1'       -84.1720   14.1140   28.7700 C.3    301  SAM301      0.0000
     18 N9        -83.0320   13.5050   29.4770 N.ar   301  SAM301      0.0000
     19 C8        -82.6670   13.7060   30.7300 C.ar   301  SAM301      0.0000
     20 N7        -81.6030   12.9660   31.0430 N.ar   301  SAM301      0.0000
     21 C5        -81.2700   12.2650   29.9790 C.ar   301  SAM301      0.0000
     22 C6        -80.2460   11.2790   29.6190 C.ar   301  SAM301      0.0000
     23 N6        -79.3170   10.8760   30.4780 N.pl3  301  SAM301      0.0000
     24 N1        -80.2550   10.7890   28.3950 N.ar   301  SAM301      0.0000
     25 C2        -81.1550   11.1580   27.5170 C.ar   301  SAM301      0.0000
     26 N3        -82.1050   12.0400   27.7710 N.ar   301  SAM301      0.0000
     27 C4        -82.2200   12.6180   28.9590 C.ar   301  SAM301      0.0000
     28 H         -86.4936   20.3973   24.7676 H      301  SAM301      0.0000
     29 H         -86.6721   19.4081   23.4699 H      301  SAM301      0.0000
     30 H         -88.2147   17.9946   24.6712 H      301  SAM301      0.0000
     31 H         -89.0207   18.7777   26.8284 H      301  SAM301      0.0000
     32 H         -88.0510   20.2885   26.7524 H      301  SAM301      0.0000
     33 H         -85.9584   19.1251   26.9991 H      301  SAM301      0.0000
     34 H         -86.6715   17.5643   26.4674 H      301  SAM301      0.0000
     35 H         -87.5543   19.0822   30.5697 H      301  SAM301      0.0000
     36 H         -88.3401   19.8794   29.1910 H      301  SAM301      0.0000
     37 H         -86.5862   20.0840   29.4544 H      301  SAM301      0.0000
     38 H         -85.8510   17.1584   30.3104 H      301  SAM301      0.0000
     39 H         -84.9064   17.9849   29.0591 H      301  SAM301      0.0000
     40 H         -85.5892   16.0671   27.4339 H      301  SAM301      0.0000
     41 H         -87.0214   15.2132   29.9034 H      301  SAM301      0.0000
     42 H         -87.4255   13.5855   28.0879 H      301  SAM301      0.0000
     43 H         -85.3212   13.8529   30.5795 H      301  SAM301      0.0000
     44 H         -85.2810   11.8781   29.3530 H      301  SAM301      0.0000
     45 H         -84.1875   13.7402   27.7238 H      301  SAM301      0.0000
     46 H         -83.0968   14.3681   31.4927 H      301  SAM301      0.0000
     47 H         -81.1135   10.7136   26.5092 H      301  SAM301      0.0000
     48 H         -78.6497   10.1848   30.1137 H      301  SAM301      0.0000
     49 H         -79.3393   11.2819   31.4222 H      301  SAM301      0.0000
     50 H         -85.9868   18.8326   24.8106 H      301  SAM301      0.0000
@<TRIPOS>BOND
     1     1     2    1
     2     1    28    1
     3     1    29    1
     4     2     3    1
     5     2     6    1
     6     2    30    1
     7     3     4   ar
     8     3     5   ar
     9     6     7    1
    10     6    31    1
    11     6    32    1
    12     7     8    1
    13     7    33    1
    14     7    34    1
    15     8     9    1
    16     8    10    1
    17     9    35    1
    18     9    36    1
    19     9    37    1
    20    10    11    1
    21    10    38    1
    22    10    39    1
    23    11    12    1
    24    11    13    1
    25    11    40    1
    26    12    17    1
    27    13    14    1
    28    13    15    1
    29    13    41    1
    30    14    42    1
    31    15    16    1
    32    15    17    1
    33    15    43    1
    34    16    44    1
    35    17    18    1
    36    17    45    1
    37    18    19   ar
    38    18    27   ar
    39    19    20   ar
    40    19    46    1
    41    20    21   ar
    42    21    22   ar
    43    21    27   ar
    44    22    23    1
    45    22    24   ar
    46    23    48    1
    47    23    49    1
    48    24    25   ar
    49    25    26   ar
    50    25    47    1
    51    26    27   ar
    52     1    50    1

