@<TRIPOS>MOLECULE
BEZ_1_A_1303
 14 14 0 0 0
SMALL
NO_CHARGES

@<TRIPOS>ATOM
      1 C          -5.1670   15.9050    5.2650 C.2   1303  BEZ1303      0.0000
      2 O1         -5.4350   17.1160    5.2340 O.co2 1303  BEZ1303     -0.5000
      3 O2         -5.9360   15.0730    5.7790 O.co2 1303  BEZ1303     -0.5000
      4 C1         -3.8820   15.4440    4.6640 C.ar  1303  BEZ1303      0.0000
      5 C2         -3.3380   16.1430    3.6000 C.ar  1303  BEZ1303      0.0000
      6 C3         -2.1450   15.7200    3.0360 C.ar  1303  BEZ1303      0.0000
      7 C4         -1.5030   14.5970    3.5410 C.ar  1303  BEZ1303      0.0000
      8 C5         -2.0510   13.9020    4.6090 C.ar  1303  BEZ1303      0.0000
      9 C6         -3.2420   14.3260    5.1700 C.ar  1303  BEZ1303      0.0000
     10 H          -3.8425   17.0353    3.1919 H     1303  BEZ1303      0.0000
     11 H          -1.7065   16.2727    2.1880 H     1303  BEZ1303      0.0000
     12 H          -0.5539   14.2577    3.0923 H     1303  BEZ1303      0.0000
     13 H          -1.5373   13.0116    5.0093 H     1303  BEZ1303      0.0000
     14 H          -3.6709   13.7664    6.0187 H     1303  BEZ1303      0.0000
@<TRIPOS>BOND
     1     1     2   ar
     2     1     3   ar
     3     1     4    1
     4     4     5   ar
     5     4     9   ar
     6     5     6   ar
     7     5    10    1
     8     6     7   ar
     9     6    11    1
    10     7     8   ar
    11     7    12    1
    12     8     9   ar
    13     8    13    1
    14     9    14    1

