BEZ_1_A_1303
  -ISIS-            3D

 14 14  0  0  0  0  0  0  0  0  1 V2000
   -5.1670   15.9050    5.2650 C   0  0  0  0  0
   -5.4350   17.1160    5.2340 O   0  0  0  0  0
   -5.9360   15.0730    5.7790 O   0  0  0  0  0
   -3.8820   15.4440    4.6640 C   0  0  0  0  0
   -3.3380   16.1430    3.6000 C   0  0  0  0  0
   -2.1450   15.7200    3.0360 C   0  0  0  0  0
   -1.5030   14.5970    3.5410 C   0  0  0  0  0
   -2.0510   13.9020    4.6090 C   0  0  0  0  0
   -3.2420   14.3260    5.1700 C   0  0  0  0  0
   -3.8425   17.0353    3.1919 H   0  0  0  0  0
   -1.7065   16.2727    2.1880 H   0  0  0  0  0
   -0.5539   14.2577    3.0923 H   0  0  0  0  0
   -1.5373   13.0116    5.0093 H   0  0  0  0  0
   -3.6709   13.7664    6.0187 H   0  0  0  0  0
  1  2  2  0  0  0
  1  3  2  0  0  0
  1  4  1  0  0  0
  4  5  2  0  0  0
  4  9  1  0  0  0
  5  6  1  0  0  0
  5 10  1  0  0  0
  6  7  2  0  0  0
  6 11  1  0  0  0
  7  8  1  0  0  0
  7 12  1  0  0  0
  8  9  2  0  0  0
  8 13  1  0  0  0
  9 14  1  0  0  0
M  END
$$$$
