@<TRIPOS>MOLECULE
DMS_1_B_1302
 11 10 0 0 0
SMALL
NO_CHARGES

@<TRIPOS>ATOM
      1 S         -15.8370   -1.9890   21.4180 S.o   1302  DMS1302      0.0000
      2 O         -14.4910   -2.0760   20.2090 O.2   1302  DMS1302      0.0000
      3 C1        -17.0610   -3.2980   21.1200 C.3   1302  DMS1302      0.0000
      4 C2        -16.9270   -0.5890   21.0870 C.3   1302  DMS1302      0.0000
      5 H         -13.6717   -1.0788   20.3954 H     1302  DMS1302      0.0000
      6 H         -17.8867   -3.1867   21.8511 H     1302  DMS1302      0.0000
      7 H         -16.5562   -4.2749   21.2599 H     1302  DMS1302      0.0000
      8 H         -17.4382   -3.2077   20.0816 H     1302  DMS1302      0.0000
      9 H         -17.7583   -0.6024   21.8200 H     1302  DMS1302      0.0000
     10 H         -17.3137   -0.6700   20.0514 H     1302  DMS1302      0.0000
     11 H         -16.3341    0.3406   21.2009 H     1302  DMS1302      0.0000
@<TRIPOS>BOND
     1     1     2    1
     2     1     3    1
     3     1     4    1
     4     2     5    1
     5     3     6    1
     6     3     7    1
     7     3     8    1
     8     4     9    1
     9     4    10    1
    10     4    11    1

