@<TRIPOS>MOLECULE
XP1_1_B_1304
 14 14 0 0 0
SMALL
NO_CHARGES

@<TRIPOS>ATOM
      1 CAE       -20.9390  -12.8770   37.2080 C.ar  1304  XP11304      0.0000
      2 CAJ       -22.0050  -12.2300   36.5750 C.ar  1304  XP11304      0.0000
      3 CAI       -22.7660  -11.2920   37.2550 C.ar  1304  XP11304      0.0000
      4 CAD       -22.4650  -10.9790   38.5790 C.ar  1304  XP11304      0.0000
      5 CAC       -23.2790   -9.9720   39.3050 C.2   1304  XP11304      0.0000
      6 OAH       -22.6980   -9.2270   40.0710 O.2   1304  XP11304      0.0000
      7 CAA       -21.3910  -11.6130   39.2180 C.ar  1304  XP11304      0.0000
      8 CAB       -20.6240  -12.5620   38.5320 C.ar  1304  XP11304      0.0000
      9 H         -20.3443  -13.6287   36.6618 H     1304  XP11304      0.0000
     10 H         -22.2437  -12.4734   35.5255 H     1304  XP11304      0.0000
     11 H         -23.6060  -10.7964   36.7394 H     1304  XP11304      0.0000
     12 H         -24.2856   -9.6840   38.9147 H     1304  XP11304      0.0000
     13 H         -21.1437  -11.3676   40.2645 H     1304  XP11304      0.0000
     14 H         -19.7783  -13.0601   39.0354 H     1304  XP11304      0.0000
@<TRIPOS>BOND
     1     1     2   ar
     2     1     8   ar
     3     1     9    1
     4     2     3   ar
     5     2    10    1
     6     3     4   ar
     7     3    11    1
     8     4     5    1
     9     4     7   ar
    10     5     6    2
    11     5    12    1
    12     7     8   ar
    13     7    13    1
    14     8    14    1

