DMS_1_A_403
  -ISIS-            3D

 10  9  0  0  0  0  0  0  0  0  1 V2000
    2.3640  -19.1820    8.1890 S   0  0  0  0  0
    3.6350  -18.7860    8.8920 O   0  0  0  0  0
    1.0610  -18.2770    8.9860 C   0  0  0  0  0
    1.9530  -20.8170    8.7810 C   0  0  0  0  0
    0.0773  -18.6249    8.6093 H   0  0  0  0  0
    1.1710  -17.1972    8.7573 H   0  0  0  0  0
    1.1076  -18.4207   10.0848 H   0  0  0  0  0
    0.9504  -21.1098    8.4071 H   0  0  0  0  0
    1.9549  -20.8362    9.8899 H   0  0  0  0  0
    2.7033  -21.5419    8.4043 H   0  0  0  0  0
  1  2  2  0  0  0
  1  3  1  0  0  0
  1  4  1  0  0  0
  3  5  1  0  0  0
  3  6  1  0  0  0
  3  7  1  0  0  0
  4  8  1  0  0  0
  4  9  1  0  0  0
  4 10  1  0  0  0
M  END
$$$$
