@<TRIPOS>MOLECULE
ALD_1_A_401
 77 77 0 0 0
SMALL
NO_CHARGES

@<TRIPOS>ATOM
      1 C9         20.2170    6.8130  -33.9100 C.2    401  ALD401      0.0000
      2 O31        21.3730    7.0770  -34.1900 O.2    401  ALD401      0.0000
      3 O8         19.2900    6.4010  -34.9430 O.3    401  ALD401      0.0000
      4 C7         19.7170    6.4560  -36.2990 C.3    401  ALD401      0.0000
      5 C3         19.5040    7.8240  -36.9140 C.ar   401  ALD401      0.0000
      6 C4         20.5740    8.6960  -37.0850 C.ar   401  ALD401      0.0000
      7 C5         20.3760    9.9440  -37.6720 C.ar   401  ALD401      0.0000
      8 C6         19.1070   10.3200  -38.0940 C.ar   401  ALD401      0.0000
      9 C1         18.0380    9.4430  -37.9330 C.ar   401  ALD401      0.0000
     10 C2         18.2380    8.1990  -37.3460 C.ar   401  ALD401      0.0000
     11 N10        19.7150    6.8780  -32.6880 N.am   401  ALD401      0.0000
     12 C11        20.5230    7.1650  -31.5110 C.3    401  ALD401      0.0000
     13 C12        20.7010    5.9150  -30.7260 C.2    401  ALD401      0.0000
     14 O32        19.7340    5.2900  -30.3280 O.2    401  ALD401      0.0000
     15 C30        19.7680    8.2210  -30.7320 C.3    401  ALD401      0.0000
     16 C31        20.5260    8.7480  -29.5210 C.3    401  ALD401      0.0000
     17 C32        21.7850    9.5040  -29.8900 C.3    401  ALD401      0.0000
     18 C33        19.5450    9.6200  -28.7320 C.3    401  ALD401      0.0000
     19 N13        21.9530    5.5340  -30.5100 N.am   401  ALD401      0.0000
     20 C14        22.2560    4.3830  -29.6640 C.3    401  ALD401      0.0000
     21 C15        22.0600    4.7390  -28.2170 C.2    401  ALD401      0.0000
     22 O34        22.6570    5.6860  -27.7360 O.2    401  ALD401      0.0000
     23 C24        23.6790    3.9110  -29.9290 C.3    401  ALD401      0.0000
     24 C25        23.8920    3.4760  -31.3790 C.3    401  ALD401      0.0000
     25 C26        23.0890    2.2100  -31.6750 C.3    401  ALD401      0.0000
     26 C27        25.3650    3.2620  -31.7070 C.3    401  ALD401      0.0000
     27 N16        21.2130    3.9880  -27.5120 N.am   401  ALD401      0.0000
     28 C17        20.9060    4.2410  -26.1110 C.3    401  ALD401      0.0000
     29 C22        21.5890    3.1160  -25.3130 C.3    401  ALD401      0.0000
     30 C18        19.4140    4.2240  -25.8100 C.3    401  ALD401      0.0000
     31 C19        18.6280    5.4000  -26.3840 C.3    401  ALD401      0.0000
     32 C20        19.1130    6.7470  -25.8680 C.3    401  ALD401      0.0000
     33 C21        17.1350    5.2280  -26.0840 C.3    401  ALD401      0.0000
     34 O33        21.4170    3.2910  -23.9070 O.3    401  ALD401      0.0000
     35 H          19.1391    5.7117  -36.8859 H      401  ALD401      0.0000
     36 H          20.7761    6.1441  -36.4047 H      401  ALD401      0.0000
     37 H          21.5865    8.4080  -36.7548 H      401  ALD401      0.0000
     38 H          21.2277   10.6336  -37.8006 H      401  ALD401      0.0000
     39 H          18.9474   11.3087  -38.5569 H      401  ALD401      0.0000
     40 H          17.0297    9.7370  -38.2713 H      401  ALD401      0.0000
     41 H          17.3825    7.5127  -37.2243 H      401  ALD401      0.0000
     42 H          18.7166    6.6675  -32.5621 H      401  ALD401      0.0000
     43 H          21.5099    7.5816  -31.8141 H      401  ALD401      0.0000
     44 H          18.7871    7.8027  -30.4052 H      401  ALD401      0.0000
     45 H          19.5296    9.0750  -31.4091 H      401  ALD401      0.0000
     46 H          20.8114    7.8868  -28.8687 H      401  ALD401      0.0000
     47 H          22.2694    9.9480  -28.9916 H      401  ALD401      0.0000
     48 H          21.5782   10.3404  -30.5943 H      401  ALD401      0.0000
     49 H          22.5492    8.8511  -30.3652 H      401  ALD401      0.0000
     50 H          20.0106   10.0128  -27.8003 H      401  ALD401      0.0000
     51 H          18.6381    9.0548  -28.4206 H      401  ALD401      0.0000
     52 H          19.2018   10.5001  -29.3207 H      401  ALD401      0.0000
     53 H          22.7290    6.0804  -30.9059 H      401  ALD401      0.0000
     54 H          21.5647    3.5450  -29.9120 H      401  ALD401      0.0000
     55 H          23.9294    3.0689  -29.2430 H      401  ALD401      0.0000
     56 H          24.3895    4.7340  -29.6822 H      401  ALD401      0.0000
     57 H          23.5245    4.2809  -32.0607 H      401  ALD401      0.0000
     58 H          23.2903    1.8344  -32.7033 H      401  ALD401      0.0000
     59 H          21.9911    2.3738  -31.6186 H      401  ALD401      0.0000
     60 H          23.3399    1.3825  -30.9744 H      401  ALD401      0.0000
     61 H          25.5142    2.9739  -32.7718 H      401  ALD401      0.0000
     62 H          25.8151    2.4589  -31.0816 H      401  ALD401      0.0000
     63 H          25.9623    4.1857  -31.5364 H      401  ALD401      0.0000
     64 H          20.7309    3.2065  -27.9772 H      401  ALD401      0.0000
     65 H          21.3390    5.2063  -25.7648 H      401  ALD401      0.0000
     66 H          22.6772    3.1029  -25.5440 H      401  ALD401      0.0000
     67 H          21.1817    2.1252  -25.6107 H      401  ALD401      0.0000
     68 H          19.2608    4.2159  -24.7061 H      401  ALD401      0.0000
     69 H          18.9781    3.2694  -26.1866 H      401  ALD401      0.0000
     70 H          18.7518    5.3932  -27.4951 H      401  ALD401      0.0000
     71 H          18.4705    7.5791  -26.2329 H      401  ALD401      0.0000
     72 H          20.1461    6.9828  -26.2046 H      401  ALD401      0.0000
     73 H          19.1056    6.7942  -24.7562 H      401  ALD401      0.0000
     74 H          16.5281    6.0421  -26.5401 H      401  ALD401      0.0000
     75 H          16.9271    5.2357  -24.9906 H      401  ALD401      0.0000
     76 H          16.7408    4.2689  -26.4887 H      401  ALD401      0.0000
     77 H          21.9316    2.6342  -23.4571 H      401  ALD401      0.0000
@<TRIPOS>BOND
     1     1     2    2
     2     1     3    1
     3     1    11    1
     4     3     4    1
     5     4     5    1
     6     4    35    1
     7     4    36    1
     8     5     6   ar
     9     5    10   ar
    10     6     7   ar
    11     6    37    1
    12     7     8   ar
    13     7    38    1
    14     8     9   ar
    15     8    39    1
    16     9    10   ar
    17     9    40    1
    18    10    41    1
    19    11    12    1
    20    11    42    1
    21    12    13    1
    22    12    15    1
    23    12    43    1
    24    13    14    2
    25    13    19    1
    26    15    16    1
    27    15    44    1
    28    15    45    1
    29    16    17    1
    30    16    18    1
    31    16    46    1
    32    17    47    1
    33    17    48    1
    34    17    49    1
    35    18    50    1
    36    18    51    1
    37    18    52    1
    38    19    20    1
    39    19    53    1
    40    20    21    1
    41    20    23    1
    42    20    54    1
    43    21    22    2
    44    21    27    1
    45    23    24    1
    46    23    55    1
    47    23    56    1
    48    24    25    1
    49    24    26    1
    50    24    57    1
    51    25    58    1
    52    25    59    1
    53    25    60    1
    54    26    61    1
    55    26    62    1
    56    26    63    1
    57    27    28    1
    58    27    64    1
    59    28    29    1
    60    28    30    1
    61    28    65    1
    62    29    34    1
    63    29    66    1
    64    29    67    1
    65    30    31    1
    66    30    68    1
    67    30    69    1
    68    31    32    1
    69    31    33    1
    70    31    70    1
    71    32    71    1
    72    32    72    1
    73    32    73    1
    74    33    74    1
    75    33    75    1
    76    33    76    1
    77    34    77    1

