@<TRIPOS>MOLECULE
EDO_1_A_406
 10 9 0 0 0
SMALL
NO_CHARGES

@<TRIPOS>ATOM
      1 C1         17.2000    9.9490  -33.5330 C.3    406  EDO406      0.0000
      2 O1         18.4170   10.6900  -33.3770 O.3    406  EDO406      0.0000
      3 C2         16.4880    9.8200  -32.1900 C.3    406  EDO406      0.0000
      4 O2         16.1370   11.1290  -31.7260 O.3    406  EDO406      0.0000
      5 H          17.4346    8.9429  -33.9399 H      406  EDO406      0.0000
      6 H          16.5404   10.4587  -34.2673 H      406  EDO406      0.0000
      7 H          18.7321   10.9299  -34.2385 H      406  EDO406      0.0000
      8 H          17.1473    9.3186  -31.4501 H      406  EDO406      0.0000
      9 H          15.5689    9.2062  -32.2948 H      406  EDO406      0.0000
     10 H          15.8779   11.0628  -30.8162 H      406  EDO406      0.0000
@<TRIPOS>BOND
     1     1     2    1
     2     1     3    1
     3     1     5    1
     4     1     6    1
     5     2     7    1
     6     3     4    1
     7     3     8    1
     8     3     9    1
     9     4    10    1

