EDO_1_B_701
  -ISIS-            3D

 10  9  0  0  0  0  0  0  0  0  1 V2000
   16.3330   10.7070  -24.7940 C   0  0  0  0  0
   16.3590    9.5460  -25.6390 O   0  0  0  0  0
   15.2270   10.5430  -23.7540 C   0  0  0  0  0
   14.0540   11.2240  -24.2130 O   0  0  0  0  0
   16.1851   11.6132  -25.4157 H   0  0  0  0  0
   17.3201   10.8160  -24.2964 H   0  0  0  0  0
   16.7528    8.8281  -25.1605 H   0  0  0  0  0
   15.5417   10.9754  -22.7804 H   0  0  0  0  0
   14.9875    9.4761  -23.5699 H   0  0  0  0  0
   14.1788   12.1577  -24.1037 H   0  0  0  0  0
  1  2  1  0  0  0
  1  3  1  0  0  0
  1  5  1  0  0  0
  1  6  1  0  0  0
  2  7  1  0  0  0
  3  4  1  0  0  0
  3  8  1  0  0  0
  3  9  1  0  0  0
  4 10  1  0  0  0
M  END
$$$$
