@<TRIPOS>MOLECULE
EDO_1_A_410
 10 9 0 0 0
SMALL
NO_CHARGES

@<TRIPOS>ATOM
      1 C1         -3.2770  -17.4750  -14.0540 C.3    410  EDO410      0.0000
      2 O1         -3.8110  -16.2650  -14.6070 O.3    410  EDO410      0.0000
      3 C2         -4.2700  -18.0570  -13.0530 C.3    410  EDO410      0.0000
      4 O2         -5.5410  -18.1790  -13.7050 O.3    410  EDO410      0.0000
      5 H          -2.3068  -17.2552  -13.5632 H      410  EDO410      0.0000
      6 H          -3.0776  -18.1962  -14.8742 H      410  EDO410      0.0000
      7 H          -4.7352  -16.4255  -14.7625 H      410  EDO410      0.0000
      8 H          -4.3785  -17.3832  -12.1778 H      410  EDO410      0.0000
      9 H          -3.9257  -19.0421  -12.6735 H      410  EDO410      0.0000
     10 H          -5.6722  -19.0871  -13.9435 H      410  EDO410      0.0000
@<TRIPOS>BOND
     1     1     2    1
     2     1     3    1
     3     1     5    1
     4     1     6    1
     5     2     7    1
     6     3     4    1
     7     3     8    1
     8     3     9    1
     9     4    10    1

