EDO_1_A_409
  -ISIS-            3D

 10  9  0  0  0  0  0  0  0  0  1 V2000
   23.8400   -2.3260   -9.8970 C   0  0  0  0  0
   25.1540   -1.9350  -10.3320 O   0  0  0  0  0
   23.2940   -3.4030  -10.8370 C   0  0  0  0  0
   23.2180   -4.6950  -10.2060 O   0  0  0  0  0
   23.1757   -1.4359   -9.9103 H   0  0  0  0  0
   23.8811   -2.6913   -8.8498 H   0  0  0  0  0
   25.4668   -1.2534   -9.7523 H   0  0  0  0  0
   23.8986   -3.4735  -11.7654 H   0  0  0  0  0
   22.2683   -3.1247  -11.1579 H   0  0  0  0  0
   24.1027   -5.0287  -10.1313 H   0  0  0  0  0
  1  2  1  0  0  0
  1  3  1  0  0  0
  1  5  1  0  0  0
  1  6  1  0  0  0
  2  7  1  0  0  0
  3  4  1  0  0  0
  3  8  1  0  0  0
  3  9  1  0  0  0
  4 10  1  0  0  0
M  END
$$$$
