@<TRIPOS>MOLECULE
EDO_1_B_705
 10 9 0 0 0
SMALL
NO_CHARGES

@<TRIPOS>ATOM
      1 C1         10.9850   15.7640  -14.7100 C.3    705  EDO705      0.0000
      2 O1         11.6580   16.0370  -13.4750 O.3    705  EDO705      0.0000
      3 C2         11.9880   15.2650  -15.7450 C.3    705  EDO705      0.0000
      4 O2         11.5760   15.6930  -17.0520 O.3    705  EDO705      0.0000
      5 H          10.5166   16.7091  -15.0557 H      705  EDO705      0.0000
      6 H          10.1644   15.0326  -14.5555 H      705  EDO705      0.0000
      7 H          11.7970   15.2170  -13.0200 H      705  EDO705      0.0000
      8 H          12.0919   14.1604  -15.7012 H      705  EDO705      0.0000
      9 H          12.9920   15.6955  -15.5475 H      705  EDO705      0.0000
     10 H          11.3434   14.9289  -17.5633 H      705  EDO705      0.0000
@<TRIPOS>BOND
     1     1     2    1
     2     1     3    1
     3     1     5    1
     4     1     6    1
     5     2     7    1
     6     3     4    1
     7     3     8    1
     8     3     9    1
     9     4    10    1

