@<TRIPOS>MOLECULE
DMS_1_A_401
 10 9 0 0 0
SMALL
NO_CHARGES

@<TRIPOS>ATOM
      1 S           6.8660  -28.1280   21.7230 S.o    401  DMS401      0.0000
      2 O           7.6860  -27.1730   22.5450 O.2    401  DMS401      0.0000
      3 C1          5.5010  -28.6110   22.7470 C.3    401  DMS401      0.0000
      4 C2          5.9600  -27.1330   20.5680 C.3    401  DMS401      0.0000
      5 H           4.7760  -29.2042   22.1530 H      401  DMS401      0.0000
      6 H           4.9937  -27.7166   23.1634 H      401  DMS401      0.0000
      7 H           5.8741  -29.2365   23.5838 H      401  DMS401      0.0000
      8 H           5.2244  -27.7613   20.0255 H      401  DMS401      0.0000
      9 H           6.6643  -26.6919   19.8331 H      401  DMS401      0.0000
     10 H           5.4291  -26.3141   21.0953 H      401  DMS401      0.0000
@<TRIPOS>BOND
     1     1     2    2
     2     1     3    1
     3     1     4    1
     4     3     5    1
     5     3     6    1
     6     3     7    1
     7     4     8    1
     8     4     9    1
     9     4    10    1

