@<TRIPOS>MOLECULE
DMS_1_A_402
 10 9 0 0 0
SMALL
NO_CHARGES

@<TRIPOS>ATOM
      1 S           6.1130   -1.1250   -6.1150 S.o    402  DMS402      0.0000
      2 O           6.5630   -0.6760   -7.4770 O.2    402  DMS402      0.0000
      3 C1          7.5240   -0.9650   -5.0520 C.3    402  DMS402      0.0000
      4 C2          6.0510   -2.8970   -6.1740 C.3    402  DMS402      0.0000
      5 H           7.3027   -1.4143   -4.0623 H      402  DMS402      0.0000
      6 H           7.7576    0.1103   -4.9123 H      402  DMS402      0.0000
      7 H           8.4047   -1.4704   -5.4989 H      402  DMS402      0.0000
      8 H           5.8638   -3.3012   -5.1582 H      402  DMS402      0.0000
      9 H           7.0060   -3.3050   -6.5641 H      402  DMS402      0.0000
     10 H           5.2240   -3.2127   -6.8425 H      402  DMS402      0.0000
@<TRIPOS>BOND
     1     1     2    2
     2     1     3    1
     3     1     4    1
     4     3     5    1
     5     3     6    1
     6     3     7    1
     7     4     8    1
     8     4     9    1
     9     4    10    1

