DMS_1_A_401
  -ISIS-            3D

 10  9  0  0  0  0  0  0  0  0  1 V2000
    6.8660  -28.1280   21.7230 S   0  0  0  0  0
    7.6860  -27.1730   22.5450 O   0  0  0  0  0
    5.5010  -28.6110   22.7470 C   0  0  0  0  0
    5.9600  -27.1330   20.5680 C   0  0  0  0  0
    4.7760  -29.2042   22.1530 H   0  0  0  0  0
    4.9937  -27.7166   23.1634 H   0  0  0  0  0
    5.8741  -29.2365   23.5838 H   0  0  0  0  0
    5.2244  -27.7613   20.0255 H   0  0  0  0  0
    6.6643  -26.6919   19.8331 H   0  0  0  0  0
    5.4291  -26.3141   21.0953 H   0  0  0  0  0
  1  2  2  0  0  0
  1  3  1  0  0  0
  1  4  1  0  0  0
  3  5  1  0  0  0
  3  6  1  0  0  0
  3  7  1  0  0  0
  4  8  1  0  0  0
  4  9  1  0  0  0
  4 10  1  0  0  0
M  END
$$$$
