DMS_1_A_404
  -ISIS-            3D

 10  9  0  0  0  0  0  0  0  0  1 V2000
   20.8860   14.4340    7.8010 S   0  0  0  0  0
   21.9860   15.1500    8.5290 O   0  0  0  0  0
   20.5480   12.9690    8.7430 C   0  0  0  0  0
   21.6540   13.6520    6.4060 C   0  0  0  0  0
   19.8461   12.3160    8.1849 H   0  0  0  0  0
   20.0809   13.2535    9.7081 H   0  0  0  0  0
   21.4867   12.4141    8.9464 H   0  0  0  0  0
   20.9268   12.9830    5.9019 H   0  0  0  0  0
   22.5361   13.0624    6.7295 H   0  0  0  0  0
   21.9837   14.4288    5.6860 H   0  0  0  0  0
  1  2  2  0  0  0
  1  3  1  0  0  0
  1  4  1  0  0  0
  3  5  1  0  0  0
  3  6  1  0  0  0
  3  7  1  0  0  0
  4  8  1  0  0  0
  4  9  1  0  0  0
  4 10  1  0  0  0
M  END
$$$$
