@<TRIPOS>MOLECULE
DMS_1_A_404
 10 9 0 0 0
SMALL
NO_CHARGES

@<TRIPOS>ATOM
      1 S          20.8860   14.4340    7.8010 S.o    404  DMS404      0.0000
      2 O          21.9860   15.1500    8.5290 O.2    404  DMS404      0.0000
      3 C1         20.5480   12.9690    8.7430 C.3    404  DMS404      0.0000
      4 C2         21.6540   13.6520    6.4060 C.3    404  DMS404      0.0000
      5 H          19.8461   12.3160    8.1849 H      404  DMS404      0.0000
      6 H          20.0809   13.2535    9.7081 H      404  DMS404      0.0000
      7 H          21.4867   12.4141    8.9464 H      404  DMS404      0.0000
      8 H          20.9268   12.9830    5.9019 H      404  DMS404      0.0000
      9 H          22.5361   13.0624    6.7295 H      404  DMS404      0.0000
     10 H          21.9837   14.4288    5.6860 H      404  DMS404      0.0000
@<TRIPOS>BOND
     1     1     2    2
     2     1     3    1
     3     1     4    1
     4     3     5    1
     5     3     6    1
     6     3     7    1
     7     4     8    1
     8     4     9    1
     9     4    10    1

