MLI_2_C_202
  -ISIS-            3D

  9  8  0  0  0  0  0  0  0  0  1 V2000
   58.3430    1.7600    8.5000 C   0  0  0  0  0
   59.0920    1.4950    9.8030 C   0  0  0  0  0
   56.8170    1.7290    8.5770 C   0  0  0  0  0
   58.6130    1.8620   10.9100 O   0  0  0  0  0
   60.2360    0.9450    9.7430 O   0  0  0  0  0
   56.2450    0.9230    9.3610 O   0  0  0  0  0
   56.1350    2.4920    7.8230 O   0  0  0  0  0
   58.6648    1.0131    7.7380 H   0  0  0  0  0
   58.6654    2.7537    8.1120 H   0  0  0  0  0
  1  2  1  0  0  0
  1  3  1  0  0  0
  1  8  1  0  0  0
  1  9  1  0  0  0
  2  4  2  0  0  0
  2  5  2  0  0  0
  3  6  2  0  0  0
  3  7  2  0  0  0
M  END
$$$$
