MLI_1_C_202
  -ISIS-            3D

  9  8  0  0  0  0  0  0  0  0  1 V2000
   58.3430   -1.7600   17.1820 C   0  0  0  0  0
   59.0920   -1.4950   15.8790 C   0  0  0  0  0
   56.8170   -1.7290   17.1050 C   0  0  0  0  0
   58.6130   -1.8620   14.7720 O   0  0  0  0  0
   60.2360   -0.9450   15.9390 O   0  0  0  0  0
   56.2450   -0.9230   16.3210 O   0  0  0  0  0
   56.1350   -2.4920   17.8590 O   0  0  0  0  0
   58.6648   -1.0131   17.9440 H   0  0  0  0  0
   58.6654   -2.7537   17.5700 H   0  0  0  0  0
  1  2  1  0  0  0
  1  3  1  0  0  0
  1  8  1  0  0  0
  1  9  1  0  0  0
  2  4  2  0  0  0
  2  5  2  0  0  0
  3  6  2  0  0  0
  3  7  2  0  0  0
M  END
$$$$
