@<TRIPOS>MOLECULE
MLI_2_C_202
 9 8 0 0 0
SMALL
NO_CHARGES

@<TRIPOS>ATOM
      1 C1         58.3430    1.7600    8.5000 C.3    202  MLI202      0.0000
      2 C2         59.0920    1.4950    9.8030 C.2    202  MLI202      0.0000
      3 C3         56.8170    1.7290    8.5770 C.2    202  MLI202      0.0000
      4 O6         58.6130    1.8620   10.9100 O.co2  202  MLI202     -0.5000
      5 O7         60.2360    0.9450    9.7430 O.co2  202  MLI202     -0.5000
      6 O8         56.2450    0.9230    9.3610 O.co2  202  MLI202     -0.5000
      7 O9         56.1350    2.4920    7.8230 O.co2  202  MLI202     -0.5000
      8 H          58.6648    1.0131    7.7380 H      202  MLI202      0.0000
      9 H          58.6654    2.7537    8.1120 H      202  MLI202      0.0000
@<TRIPOS>BOND
     1     1     2    1
     2     1     3    1
     3     1     8    1
     4     1     9    1
     5     2     4   ar
     6     2     5   ar
     7     3     6   ar
     8     3     7   ar

