@<TRIPOS>MOLECULE
FMT_1_B_4405
 3 2 0 0 0
SMALL
NO_CHARGES

@<TRIPOS>ATOM
      1 C          66.5530  -16.5110  -22.4530 C.2   4405  FMT4405      0.0000
      2 O1         66.0370  -15.6400  -21.7830 O.2   4405  FMT4405      0.0000
      3 O2         67.8280  -16.6160  -22.6810 O.2   4405  FMT4405     -0.5000
@<TRIPOS>BOND
     1     1     2   ar
     2     1     3   ar

