FMT_1_A_7108
  -ISIS-            3D

  4  3  0  0  0  0  0  0  0  0  1 V2000
   78.9210   46.8580    3.1510 C   0  0  0  0  0
   78.3930   46.0590    2.4060 O   0  0  0  0  0
   80.1690   47.2190    3.0950 O   0  0  0  0  0
   78.2705   47.3380    3.9750 H   0  0  0  0  0
  1  2  2  0  0  0
  1  3  1  0  0  0
  1  4  1  0  0  0
M  END
$$$$
