FMT_1_B_4404
  -ISIS-            3D

  4  3  0  0  0  0  0  0  0  0  1 V2000
   56.2970   35.5180  -46.0110 C   0  0  0  0  0
   55.4120   36.2580  -45.6330 O   0  0  0  0  0
   57.5600   35.8240  -46.0460 O   0  0  0  0  0
   56.0007   34.4609  -46.3676 H   0  0  0  0  0
  1  2  2  0  0  0
  1  3  1  0  0  0
  1  4  1  0  0  0
M  END
$$$$
