@<TRIPOS>MOLECULE
FMT_1_A_7106
 4 3 0 0 0
SMALL
NO_CHARGES

@<TRIPOS>ATOM
      1 C         104.7560   29.3730    3.7330 C.2   7106  FMT7106      0.0000
      2 O1        104.2060   29.2220    4.8040 O.2   7106  FMT7106     -0.5000
      3 O2        104.5410   28.6490    2.6730 O.3   7106  FMT7106     -0.5000
      4 H         105.5313   30.2233    3.6408 H     7106  FMT7106      0.0000
@<TRIPOS>BOND
     1     1     2   ar
     2     1     3   ar
     3     1     4    1

