@<TRIPOS>MOLECULE
FMT_1_B_4404
 4 3 0 0 0
SMALL
NO_CHARGES

@<TRIPOS>ATOM
      1 C          56.2970   35.5180  -46.0110 C.2   4404  FMT4404      0.0000
      2 O1         55.4120   36.2580  -45.6330 O.2   4404  FMT4404     -0.5000
      3 O2         57.5600   35.8240  -46.0460 O.3   4404  FMT4404     -0.5000
      4 H          56.0007   34.4609  -46.3676 H     4404  FMT4404      0.0000
@<TRIPOS>BOND
     1     1     2   ar
     2     1     3   ar
     3     1     4    1

