@<TRIPOS>MOLECULE
FMT_1_B_4403
 4 3 0 0 0
SMALL
NO_CHARGES

@<TRIPOS>ATOM
      1 C          49.5220    7.9420   -6.6340 C.2   4403  FMT4403      0.0000
      2 O1         49.7420    7.9010   -7.8280 O.2   4403  FMT4403     -0.5000
      3 O2         50.3860    7.6460   -5.7070 O.3   4403  FMT4403     -0.5000
      4 H          48.4693    8.2672   -6.2897 H     4403  FMT4403      0.0000
@<TRIPOS>BOND
     1     1     2   ar
     2     1     3   ar
     3     1     4    1

