@<TRIPOS>MOLECULE
SV6_2_A_401
 103 107 0 0 0
SMALL
NO_CHARGES

@<TRIPOS>ATOM
      1 CBN       -11.8600    8.5610  -26.8520 C.ar   401  SV6401      0.0000
      2 CBO       -12.1250   10.1540  -28.4840 C.ar   401  SV6401      0.0000
      3 CBP       -12.5470    9.1620  -29.3510 C.ar   401  SV6401      0.0000
      4 CBB       -11.4530    8.1010  -25.4310 C.2    401  SV6401      0.0000
      5 CBQ       -12.2510    7.5700  -27.7260 C.ar   401  SV6401      0.0000
      6 OBW       -11.2890    8.8250  -24.5050 O.2    401  SV6401      0.0000
      7 NAF       -11.7760    9.8290  -27.2360 N.ar   401  SV6401      0.0000
      8 NAG       -12.6050    7.8910  -28.9600 N.ar   401  SV6401      0.0000
      9 NAD       -11.2950    6.6610  -25.3030 N.am   401  SV6401      0.0000
     10 CAY       -10.8510    6.0780  -24.0600 C.3    401  SV6401      0.0000
     11 CAX       -10.0520    4.8890  -24.5920 C.2    401  SV6401      0.0000
     12 OBU       -10.1440    4.4450  -25.7090 O.2    401  SV6401      0.0000
     13 CBH       -11.9570    5.5600  -23.1130 C.3    401  SV6401      0.0000
     14 CBI       -12.8860    6.7110  -22.6170 C.3    401  SV6401      0.0000
     15 CBJ       -13.9400    6.1180  -21.6610 C.3    401  SV6401      0.0000
     16 CBK       -14.7940    5.0590  -22.4040 C.3    401  SV6401      0.0000
     17 CBL       -13.9540    3.9120  -23.0090 C.3    401  SV6401      0.0000
     18 CBM       -12.7140    4.4220  -23.8070 C.3    401  SV6401      0.0000
     19 NAC        -9.1020    4.2780  -23.6590 N.am   401  SV6401      0.0000
     20 CAW        -8.3790    3.1410  -24.1680 C.3    401  SV6401      0.0000
     21 CAZ        -6.8620    3.3850  -24.1550 C.3    401  SV6401      0.0000
     22 CBC        -6.3750    3.8920  -22.7760 C.3    401  SV6401      0.0000
     23 CBD        -6.5410    4.4730  -25.1960 C.3    401  SV6401      0.0000
     24 CBA        -6.1420    2.0600  -24.5530 C.3    401  SV6401      0.0000
     25 CAV        -8.7320    1.9320  -23.3220 C.2    401  SV6401      0.0000
     26 OBT        -8.5260    1.8480  -22.1350 O.2    401  SV6401      0.0000
     27 C          -8.4690   -1.1690  -23.1980 C.2    401  SV6401      0.0000
     28 N          -9.3730    0.7920  -24.0180 N.am   401  SV6401      0.0000
     29 O          -7.8400   -1.4580  -24.1690 O.2    401  SV6401      0.0000
     30 CA         -9.7190   -0.4260  -23.3370 C.3    401  SV6401      0.0000
     31 CB        -10.8210   -1.1480  -24.2180 C.3    401  SV6401      0.0000
     32 CG        -10.8570   -0.2980  -25.5010 C.3    401  SV6401      0.0000
     33 CBE       -12.2890   -1.0260  -23.3770 C.3    401  SV6401      0.0000
     34 CBF       -12.9660    0.0070  -23.9190 C.3    401  SV6401      0.0000
     35 CD1        -9.7170    0.6640  -25.2930 C.2    401  SV6401      0.0000
     36 CD2       -12.3990    0.2270  -25.3090 C.3    401  SV6401      0.0000
     37 NAA        -5.1700   -5.1250  -22.4220 N.am   401  SV6401      0.0000
     38 NAE        -7.9490   -1.5120  -21.8840 N.am   401  SV6401      0.0000
     39 CAH        -6.6660   -2.2080  -21.8150 C.3    401  SV6401      0.0000
     40 CAI        -6.7780   -3.6210  -21.2370 C.3    401  SV6401      0.0000
     41 CAJ        -5.8240   -1.2920  -20.9190 C.3    401  SV6401      0.0000
     42 CAK        -5.1140   -0.2850  -21.8640 C.3    401  SV6401      0.0000
     43 CAL        -4.5450    0.8600  -20.9850 C.3    401  SV6401      0.0000
     44 CAM        -5.4160   -4.3230  -21.2390 C.2    401  SV6401      0.0000
     45 CAN        -3.9430   -5.8740  -22.6420 C.3    401  SV6401      0.0000
     46 CAO        -3.5430   -6.0310  -24.1140 C.3    401  SV6401      0.0000
     47 CAP        -2.8630   -4.9750  -23.2390 C.3    401  SV6401      0.0000
     48 OBR        -7.6640   -4.3490  -22.0280 O.3    401  SV6401      0.0000
     49 OBS        -4.6320   -4.2360  -20.3290 O.2    401  SV6401      0.0000
     50 H         -12.0668   11.2078  -28.8005 H      401  SV6401      0.0000
     51 H         -12.8420    9.4087  -30.3840 H      401  SV6401      0.0000
     52 H         -12.3408    6.5037  -27.4893 H      401  SV6401      0.0000
     53 H         -11.4407    6.0105  -26.0844 H      401  SV6401      0.0000
     54 H         -10.1611    6.7609  -23.5121 H      401  SV6401      0.0000
     55 H         -11.4550    5.1298  -22.2111 H      401  SV6401      0.0000
     56 H         -13.3903    7.2045  -23.4782 H      401  SV6401      0.0000
     57 H         -12.2867    7.4868  -22.0877 H      401  SV6401      0.0000
     58 H         -14.5992    6.9299  -21.2758 H      401  SV6401      0.0000
     59 H         -13.4439    5.6563  -20.7767 H      401  SV6401      0.0000
     60 H         -15.3628    5.5610  -23.2211 H      401  SV6401      0.0000
     61 H         -15.5539    4.6360  -21.7068 H      401  SV6401      0.0000
     62 H         -14.5907    3.2699  -23.6604 H      401  SV6401      0.0000
     63 H         -13.5944    3.2618  -22.1773 H      401  SV6401      0.0000
     64 H         -12.0447    3.5526  -23.9983 H      401  SV6401      0.0000
     65 H         -13.0771    4.7735  -24.8003 H      401  SV6401      0.0000
     66 H          -8.9862    4.6151  -22.6950 H      401  SV6401      0.0000
     67 H          -8.6486    2.9265  -25.2207 H      401  SV6401      0.0000
     68 H          -5.2739    4.0541  -22.7793 H      401  SV6401      0.0000
     69 H          -6.5767    3.1725  -21.9553 H      401  SV6401      0.0000
     70 H          -6.8293    4.8643  -22.4867 H      401  SV6401      0.0000
     71 H          -5.4470    4.6680  -25.2585 H      401  SV6401      0.0000
     72 H          -7.0282    5.4439  -24.9551 H      401  SV6401      0.0000
     73 H          -6.8744    4.1857  -26.2182 H      401  SV6401      0.0000
     74 H          -5.0374    2.1448  -24.4502 H      401  SV6401      0.0000
     75 H          -6.3497    1.7865  -25.6116 H      401  SV6401      0.0000
     76 H          -6.4688    1.2012  -23.9407 H      401  SV6401      0.0000
     77 H         -10.1266   -0.2100  -22.3240 H      401  SV6401      0.0000
     78 H         -10.5641   -2.2145  -24.4092 H      401  SV6401      0.0000
     79 H         -10.7344   -0.9120  -26.4202 H      401  SV6401      0.0000
     80 H         -12.1380   -0.9469  -22.2778 H      401  SV6401      0.0000
     81 H         -12.8326   -1.9852  -23.5481 H      401  SV6401      0.0000
     82 H         -12.7805    0.9325  -23.3243 H      401  SV6401      0.0000
     83 H         -14.0701   -0.1373  -23.9352 H      401  SV6401      0.0000
     84 H          -9.4572    1.3773  -26.0830 H      401  SV6401      0.0000
     85 H         -13.0288   -0.3352  -26.0389 H      401  SV6401      0.0000
     86 H         -12.4670    1.2985  -25.6058 H      401  SV6401      0.0000
     87 H          -5.9382   -5.1335  -23.1122 H      401  SV6401      0.0000
     88 H          -8.4764   -1.2605  -21.0365 H      401  SV6401      0.0000
     89 H          -6.1789   -2.2966  -22.8127 H      401  SV6401      0.0000
     90 H          -7.1604   -3.5601  -20.1929 H      401  SV6401      0.0000
     91 H          -5.0458   -1.8589  -20.3639 H      401  SV6401      0.0000
     92 H          -6.4464   -0.7753  -20.1544 H      401  SV6401      0.0000
     93 H          -5.8433    0.1337  -22.5821 H      401  SV6401      0.0000
     94 H          -4.2993   -0.7794  -22.4409 H      401  SV6401      0.0000
     95 H          -4.0177    1.6169  -21.6080 H      401  SV6401      0.0000
     96 H          -3.8120    0.4793  -20.2390 H      401  SV6401      0.0000
     97 H          -5.3479    1.3935  -20.4288 H      401  SV6401      0.0000
     98 H          -3.6238   -6.6513  -21.9522 H      401  SV6401      0.0000
     99 H          -4.2485   -5.6504  -24.8473 H      401  SV6401      0.0000
    100 H          -2.9432   -6.9071  -24.3449 H      401  SV6401      0.0000
    101 H          -1.8445   -5.2011  -22.9355 H      401  SV6401      0.0000
    102 H          -3.1470   -3.9456  -23.4409 H      401  SV6401      0.0000
    103 H          -7.9431   -5.1214  -21.5529 H      401  SV6401      0.0000
@<TRIPOS>BOND
     1     1     4    1
     2     1     5   ar
     3     1     7   ar
     4     2     3   ar
     5     2     7   ar
     6     2    50    1
     7     3     8   ar
     8     3    51    1
     9     4     6    2
    10     4     9    1
    11     5     8   ar
    12     5    52    1
    13     9    10    1
    14     9    53    1
    15    10    11    1
    16    10    13    1
    17    10    54    1
    18    11    12    2
    19    11    19    1
    20    13    14    1
    21    13    18    1
    22    13    55    1
    23    14    15    1
    24    14    56    1
    25    14    57    1
    26    15    16    1
    27    15    58    1
    28    15    59    1
    29    16    17    1
    30    16    60    1
    31    16    61    1
    32    17    18    1
    33    17    62    1
    34    17    63    1
    35    18    64    1
    36    18    65    1
    37    19    20    1
    38    19    66    1
    39    20    21    1
    40    20    25    1
    41    20    67    1
    42    21    22    1
    43    21    23    1
    44    21    24    1
    45    22    68    1
    46    22    69    1
    47    22    70    1
    48    23    71    1
    49    23    72    1
    50    23    73    1
    51    24    74    1
    52    24    75    1
    53    24    76    1
    54    25    26    2
    55    25    28    1
    56    27    29    2
    57    27    30    1
    58    27    38    1
    59    28    30    1
    60    28    35    2
    61    30    31    1
    62    30    77    1
    63    31    32    1
    64    31    33    1
    65    31    78    1
    66    32    35    1
    67    32    36    1
    68    32    79    1
    69    33    34    1
    70    33    80    1
    71    33    81    1
    72    34    36    1
    73    34    82    1
    74    34    83    1
    75    35    84    1
    76    36    85    1
    77    36    86    1
    78    37    44    1
    79    37    45    1
    80    37    87    1
    81    38    39    1
    82    38    88    1
    83    39    40    1
    84    39    41    1
    85    39    89    1
    86    40    44    1
    87    40    48    1
    88    40    90    1
    89    41    42    1
    90    41    91    1
    91    41    92    1
    92    42    43    1
    93    42    93    1
    94    42    94    1
    95    43    95    1
    96    43    96    1
    97    43    97    1
    98    44    49    2
    99    45    46    1
   100    45    47    1
   101    45    98    1
   102    46    47    1
   103    46    99    1
   104    46   100    1
   105    47   101    1
   106    47   102    1
   107    48   103    1

