@<TRIPOS>MOLECULE
DMS_1_A_405
 10 9 0 0 0
SMALL
NO_CHARGES

@<TRIPOS>ATOM
      1 S          20.4620  -16.2420    5.0840 S.o    405  DMS405      0.0000
      2 O          21.5520  -16.0940    6.0980 O.2    405  DMS405      0.0000
      3 C1         20.7510  -15.1480    3.6670 C.3    405  DMS405      0.0000
      4 C2         20.5470  -17.8640    4.2710 C.3    405  DMS405      0.0000
      5 H          19.9511  -15.2977    2.9133 H      405  DMS405      0.0000
      6 H          21.7378  -15.3739    3.2134 H      405  DMS405      0.0000
      7 H          20.7370  -14.0935    4.0106 H      405  DMS405      0.0000
      8 H          19.7524  -17.9348    3.5004 H      405  DMS405      0.0000
      9 H          20.3947  -18.6603    5.0279 H      405  DMS405      0.0000
     10 H          21.5407  -17.9936    3.7954 H      405  DMS405      0.0000
@<TRIPOS>BOND
     1     1     2    2
     2     1     3    1
     3     1     4    1
     4     3     5    1
     5     3     6    1
     6     3     7    1
     7     4     8    1
     8     4     9    1
     9     4    10    1

