DMS_2_A_405
  -ISIS-            3D

 10  9  0  0  0  0  0  0  0  0  1 V2000
  -20.4620  -16.2420   -5.0840 S   0  0  0  0  0
  -21.5520  -16.0940   -6.0980 O   0  0  0  0  0
  -20.7510  -15.1480   -3.6670 C   0  0  0  0  0
  -20.5470  -17.8640   -4.2710 C   0  0  0  0  0
  -19.9511  -15.2977   -2.9133 H   0  0  0  0  0
  -21.7378  -15.3739   -3.2134 H   0  0  0  0  0
  -20.7370  -14.0935   -4.0106 H   0  0  0  0  0
  -19.7524  -17.9348   -3.5004 H   0  0  0  0  0
  -20.3947  -18.6603   -5.0279 H   0  0  0  0  0
  -21.5407  -17.9936   -3.7954 H   0  0  0  0  0
  1  2  2  0  0  0
  1  3  1  0  0  0
  1  4  1  0  0  0
  3  5  1  0  0  0
  3  6  1  0  0  0
  3  7  1  0  0  0
  4  8  1  0  0  0
  4  9  1  0  0  0
  4 10  1  0  0  0
M  END
$$$$
