@<TRIPOS>MOLECULE
DMS_1_A_404
 10 9 0 0 0
SMALL
NO_CHARGES

@<TRIPOS>ATOM
      1 S           2.3860  -18.8080    8.0130 S.o    404  DMS404      0.0000
      2 O           2.1540  -20.2420    7.6350 O.2    404  DMS404      0.0000
      3 C1          3.8670  -18.6820    9.0590 C.3    404  DMS404      0.0000
      4 C2          1.1330  -18.2940    9.2280 C.3    404  DMS404      0.0000
      5 H           3.9944  -17.6335    9.3977 H      404  DMS404      0.0000
      6 H           4.7564  -18.9861    8.4701 H      404  DMS404      0.0000
      7 H           3.7641  -19.3489    9.9395 H      404  DMS404      0.0000
      8 H           1.3435  -17.2577    9.5627 H      404  DMS404      0.0000
      9 H           1.1511  -18.9791   10.1003 H      404  DMS404      0.0000
     10 H           0.1305  -18.3284    8.7547 H      404  DMS404      0.0000
@<TRIPOS>BOND
     1     1     2    2
     2     1     3    1
     3     1     4    1
     4     3     5    1
     5     3     6    1
     6     3     7    1
     7     4     8    1
     8     4     9    1
     9     4    10    1

