@<TRIPOS>MOLECULE
DMS_1_A_506
 10 9 0 0 0
SMALL
NO_CHARGES

@<TRIPOS>ATOM
      1 S          20.6730  -16.1140    5.5660 S.o    506  DMS506      0.0000
      2 O          20.9110  -15.1530    4.4460 O.2    506  DMS506      0.0000
      3 C1         20.8720  -17.8100    4.9540 C.3    506  DMS506      0.0000
      4 C2         22.0580  -16.0400    6.7340 C.3    506  DMS506      0.0000
      5 H          20.7633  -18.5237    5.7961 H      506  DMS506      0.0000
      6 H          21.8735  -17.9285    4.4919 H      506  DMS506      0.0000
      7 H          20.0904  -18.0188    4.1952 H      506  DMS506      0.0000
      8 H          21.9159  -16.8021    7.5272 H      506  DMS506      0.0000
      9 H          22.0919  -15.0328    7.1973 H      506  DMS506      0.0000
     10 H          23.0114  -16.2310    6.2001 H      506  DMS506      0.0000
@<TRIPOS>BOND
     1     1     2    2
     2     1     3    1
     3     1     4    1
     4     3     5    1
     5     3     6    1
     6     3     7    1
     7     4     8    1
     8     4     9    1
     9     4    10    1

