@<TRIPOS>MOLECULE
DMS_2_A_503
 10 9 0 0 0
SMALL
NO_CHARGES

@<TRIPOS>ATOM
      1 S          -2.3200  -18.9050   -8.0880 S.o    503  DMS503      0.0000
      2 O          -2.0950  -20.3160   -7.6520 O.2    503  DMS503      0.0000
      3 C1         -3.9190  -18.7890   -8.9380 C.3    503  DMS503      0.0000
      4 C2         -1.1990  -18.5170   -9.4590 C.3    503  DMS503      0.0000
      5 H          -4.0592  -17.7593   -9.3256 H      503  DMS503      0.0000
      6 H          -4.7320  -19.0233   -8.2207 H      503  DMS503      0.0000
      7 H          -3.9513  -19.5114   -9.7792 H      503  DMS503      0.0000
      8 H          -1.4103  -17.4944   -9.8331 H      503  DMS503      0.0000
      9 H          -1.3397  -19.2502  -10.2794 H      503  DMS503      0.0000
     10 H          -0.1509  -18.5649   -9.0990 H      503  DMS503      0.0000
@<TRIPOS>BOND
     1     1     2    2
     2     1     3    1
     3     1     4    1
     4     3     5    1
     5     3     6    1
     6     3     7    1
     7     4     8    1
     8     4     9    1
     9     4    10    1

