DMS_2_A_503
  -ISIS-            3D

 10  9  0  0  0  0  0  0  0  0  1 V2000
   -2.3200  -18.9050   -8.0880 S   0  0  0  0  0
   -2.0950  -20.3160   -7.6520 O   0  0  0  0  0
   -3.9190  -18.7890   -8.9380 C   0  0  0  0  0
   -1.1990  -18.5170   -9.4590 C   0  0  0  0  0
   -4.0592  -17.7593   -9.3256 H   0  0  0  0  0
   -4.7320  -19.0233   -8.2207 H   0  0  0  0  0
   -3.9513  -19.5114   -9.7792 H   0  0  0  0  0
   -1.4103  -17.4944   -9.8331 H   0  0  0  0  0
   -1.3397  -19.2502  -10.2794 H   0  0  0  0  0
   -0.1509  -18.5649   -9.0990 H   0  0  0  0  0
  1  2  2  0  0  0
  1  3  1  0  0  0
  1  4  1  0  0  0
  3  5  1  0  0  0
  3  6  1  0  0  0
  3  7  1  0  0  0
  4  8  1  0  0  0
  4  9  1  0  0  0
  4 10  1  0  0  0
M  END
$$$$
