@<TRIPOS>MOLECULE
IMD_2_A_505
 9 9 0 0 0
SMALL
NO_CHARGES

@<TRIPOS>ATOM
      1 N1         -7.7100  -21.7710    1.4650 N.ar   505  IMD505      0.0000
      2 C2         -6.8680  -22.8190    1.3130 C.ar   505  IMD505      0.0000
      3 N3         -5.6160  -22.3440    1.1330 N.ar   505  IMD505      0.0000
      4 C4         -5.6640  -20.9960    1.1730 C.ar   505  IMD505      0.0000
      5 C5         -6.9880  -20.6340    1.3810 C.ar   505  IMD505      0.0000
      6 H          -8.7241  -21.8327    1.6176 H      505  IMD505      0.0000
      7 H          -7.0644  -23.8988    1.3180 H      505  IMD505      0.0000
      8 H          -4.7492  -20.4051    1.0486 H      505  IMD505      0.0000
      9 H          -7.3896  -19.6134    1.4649 H      505  IMD505      0.0000
@<TRIPOS>BOND
     1     1     2   ar
     2     1     5   ar
     3     1     6    1
     4     2     3   ar
     5     2     7    1
     6     3     4   ar
     7     4     5   ar
     8     4     8    1
     9     5     9    1

