DMS_1_A_403
  -ISIS-            3D

 10  9  0  0  0  0  0  0  0  0  1 V2000
    2.3290  -19.0240    8.0770 S   0  0  0  0  0
    3.6650  -18.6650    8.7500 O   0  0  0  0  0
    1.0810  -18.1320    8.9780 C   0  0  0  0  0
    1.9430  -20.6380    8.7400 C   0  0  0  0  0
    0.0737  -18.4818    8.6728 H   0  0  0  0  0
    1.1684  -17.0504    8.7484 H   0  0  0  0  0
    1.2099  -18.2798   10.0701 H   0  0  0  0  0
    0.9120  -20.9267    8.4502 H   0  0  0  0  0
    2.0300  -20.6344    9.8463 H   0  0  0  0  0
    2.6528  -21.3822    8.3246 H   0  0  0  0  0
  1  2  2  0  0  0
  1  3  1  0  0  0
  1  4  1  0  0  0
  3  5  1  0  0  0
  3  6  1  0  0  0
  3  7  1  0  0  0
  4  8  1  0  0  0
  4  9  1  0  0  0
  4 10  1  0  0  0
M  END
$$$$
