@<TRIPOS>MOLECULE
DMS_2_A_402
 10 9 0 0 0
SMALL
NO_CHARGES

@<TRIPOS>ATOM
      1 S          -6.1310   -0.9640    6.2850 S.o    402  DMS402      0.0000
      2 O          -7.1390   -0.8650    7.3680 O.2    402  DMS402      0.0000
      3 C1         -7.0690   -0.8460    4.7630 C.3    402  DMS402      0.0000
      4 C2         -5.6800   -2.6640    6.1670 C.3    402  DMS402      0.0000
      5 H          -6.4062   -1.0511    3.8975 H      402  DMS402      0.0000
      6 H          -7.4801    0.1797    4.6654 H      402  DMS402      0.0000
      7 H          -7.9065   -1.5735    4.7687 H      402  DMS402      0.0000
      8 H          -5.0449   -2.8243    5.2718 H      402  DMS402      0.0000
      9 H          -6.5850   -3.3016    6.0956 H      402  DMS402      0.0000
     10 H          -5.1045   -2.9550    7.0696 H      402  DMS402      0.0000
@<TRIPOS>BOND
     1     1     2    2
     2     1     3    1
     3     1     4    1
     4     3     5    1
     5     3     6    1
     6     3     7    1
     7     4     8    1
     8     4     9    1
     9     4    10    1

