@<TRIPOS>MOLECULE
DMS_2_A_403
 10 9 0 0 0
SMALL
NO_CHARGES

@<TRIPOS>ATOM
      1 S         -26.6420   33.0640   39.3840 S.o    403  DMS403      0.0000
      2 O         -25.8000   32.8080   40.5850 O.2    403  DMS403      0.0000
      3 C1        -28.1090   31.9980   39.4660 C.3    403  DMS403      0.0000
      4 C2        -25.7680   32.4120   37.9280 C.3    403  DMS403      0.0000
      5 H         -28.7076   32.1217   38.5405 H      403  DMS403      0.0000
      6 H         -28.7242   32.2884   40.3421 H      403  DMS403      0.0000
      7 H         -27.7973   30.9384   39.5687 H      403  DMS403      0.0000
      8 H         -26.4095   32.5268   37.0305 H      403  DMS403      0.0000
      9 H         -25.5318   31.3391   38.0820 H      403  DMS403      0.0000
     10 H         -24.8268   32.9802   37.7813 H      403  DMS403      0.0000
@<TRIPOS>BOND
     1     1     2    2
     2     1     3    1
     3     1     4    1
     4     3     5    1
     5     3     6    1
     6     3     7    1
     7     4     8    1
     8     4     9    1
     9     4    10    1

