@<TRIPOS>MOLECULE
DMS_1_A_404
 10 9 0 0 0
SMALL
NO_CHARGES

@<TRIPOS>ATOM
      1 S         -26.0230    3.7040   38.2780 S.o    404  DMS404      0.0000
      2 O         -25.7670    3.0300   39.5960 O.2    404  DMS404      0.0000
      3 C1        -25.8120    5.5170   38.3390 C.3    404  DMS404      0.0000
      4 C2        -27.8030    3.6230   37.9740 C.3    404  DMS404      0.0000
      5 H         -26.0983    5.9567   37.3618 H      404  DMS404      0.0000
      6 H         -24.7487    5.7522   38.5496 H      404  DMS404      0.0000
      7 H         -26.4488    5.9416   39.1419 H      404  DMS404      0.0000
      8 H         -28.0409    4.1343   37.0189 H      404  DMS404      0.0000
      9 H         -28.3505    4.1134   38.8048 H      404  DMS404      0.0000
     10 H         -28.1153    2.5609   37.9055 H      404  DMS404      0.0000
@<TRIPOS>BOND
     1     1     2    2
     2     1     3    1
     3     1     4    1
     4     3     5    1
     5     3     6    1
     6     3     7    1
     7     4     8    1
     8     4     9    1
     9     4    10    1

