@<TRIPOS>MOLECULE
DMS_2_A_406
 10 9 0 0 0
SMALL
NO_CHARGES

@<TRIPOS>ATOM
      1 S         -12.4850   14.7580   46.4930 S.o    406  DMS406      0.0000
      2 O         -12.8570   13.6300   47.3840 O.2    406  DMS406      0.0000
      3 C1        -13.4080   16.2550   46.9680 C.3    406  DMS406      0.0000
      4 C2        -13.3000   14.4140   44.8970 C.3    406  DMS406      0.0000
      5 H         -13.2241   17.0558   46.2229 H      406  DMS406      0.0000
      6 H         -13.0608   16.5960   47.9647 H      406  DMS406      0.0000
      7 H         -14.4932   16.0298   47.0142 H      406  DMS406      0.0000
      8 H         -13.1356   15.2661   44.2062 H      406  DMS406      0.0000
      9 H         -14.3882   14.2653   45.0531 H      406  DMS406      0.0000
     10 H         -12.8629   13.4956   44.4542 H      406  DMS406      0.0000
@<TRIPOS>BOND
     1     1     2    2
     2     1     3    1
     3     1     4    1
     4     3     5    1
     5     3     6    1
     6     3     7    1
     7     4     8    1
     8     4     9    1
     9     4    10    1

