@<TRIPOS>MOLECULE
DMS_1_A_403
 10 9 0 0 0
SMALL
NO_CHARGES

@<TRIPOS>ATOM
      1 S         -16.8090   33.0640   54.3090 S.o    403  DMS403      0.0000
      2 O         -17.6510   32.8080   53.1080 O.2    403  DMS403      0.0000
      3 C1        -15.3420   31.9980   54.2270 C.3    403  DMS403      0.0000
      4 C2        -17.6830   32.4120   55.7650 C.3    403  DMS403      0.0000
      5 H         -14.7434   32.1217   55.1525 H      403  DMS403      0.0000
      6 H         -14.7268   32.2884   53.3509 H      403  DMS403      0.0000
      7 H         -15.6537   30.9384   54.1243 H      403  DMS403      0.0000
      8 H         -17.0415   32.5268   56.6625 H      403  DMS403      0.0000
      9 H         -17.9192   31.3391   55.6110 H      403  DMS403      0.0000
     10 H         -18.6242   32.9802   55.9117 H      403  DMS403      0.0000
@<TRIPOS>BOND
     1     1     2    2
     2     1     3    1
     3     1     4    1
     4     3     5    1
     5     3     6    1
     6     3     7    1
     7     4     8    1
     8     4     9    1
     9     4    10    1

