@<TRIPOS>MOLECULE
DMS_2_A_405
 10 9 0 0 0
SMALL
NO_CHARGES

@<TRIPOS>ATOM
      1 S         -29.6700    9.3640   20.7820 S.o    405  DMS405      0.0000
      2 O         -29.3670    8.4760   19.6250 O.2    405  DMS405      0.0000
      3 C1        -28.7380    8.7310   22.1500 C.3    405  DMS405      0.0000
      4 C2        -31.2780    8.9120   21.3680 C.3    405  DMS405      0.0000
      5 H         -29.0219    9.2655   23.0794 H      405  DMS405      0.0000
      6 H         -27.6565    8.8908   21.9624 H      405  DMS405      0.0000
      7 H         -28.9249    7.6447   22.2767 H      405  DMS405      0.0000
      8 H         -31.4976    9.4443   22.3160 H      405  DMS405      0.0000
      9 H         -31.3352    7.8170   21.5373 H      405  DMS405      0.0000
     10 H         -32.0379    9.1995   20.6128 H      405  DMS405      0.0000
@<TRIPOS>BOND
     1     1     2    2
     2     1     3    1
     3     1     4    1
     4     3     5    1
     5     3     6    1
     6     3     7    1
     7     4     8    1
     8     4     9    1
     9     4    10    1

