@<TRIPOS>MOLECULE
DMS_1_A_406
 10 9 0 0 0
SMALL
NO_CHARGES

@<TRIPOS>ATOM
      1 S         -30.9660   14.7580   47.2000 S.o    406  DMS406      0.0000
      2 O         -30.5940   13.6300   46.3090 O.2    406  DMS406      0.0000
      3 C1        -30.0430   16.2550   46.7250 C.3    406  DMS406      0.0000
      4 C2        -30.1510   14.4140   48.7960 C.3    406  DMS406      0.0000
      5 H         -30.2269   17.0558   47.4701 H      406  DMS406      0.0000
      6 H         -30.3902   16.5960   45.7283 H      406  DMS406      0.0000
      7 H         -28.9578   16.0298   46.6788 H      406  DMS406      0.0000
      8 H         -30.3154   15.2661   49.4868 H      406  DMS406      0.0000
      9 H         -29.0628   14.2653   48.6399 H      406  DMS406      0.0000
     10 H         -30.5881   13.4956   49.2388 H      406  DMS406      0.0000
@<TRIPOS>BOND
     1     1     2    2
     2     1     3    1
     3     1     4    1
     4     3     5    1
     5     3     6    1
     6     3     7    1
     7     4     8    1
     8     4     9    1
     9     4    10    1

