@<TRIPOS>MOLECULE
DMS_2_A_402
 10 9 0 0 0
SMALL
NO_CHARGES

@<TRIPOS>ATOM
      1 S         -30.9490   12.9860   30.6710 S.o    402  DMS402      0.0000
      2 O         -29.6720   12.3140   30.3380 O.2    402  DMS402      0.0000
      3 C1        -31.4500   13.8030   29.1940 C.3    402  DMS402      0.0000
      4 C2        -32.1800   11.7210   30.6800 C.3    402  DMS402      0.0000
      5 H         -32.4737   14.2120   29.3172 H      402  DMS402      0.0000
      6 H         -31.4353   13.1003   28.3357 H      402  DMS402      0.0000
      7 H         -30.7550   14.6416   28.9838 H      402  DMS402      0.0000
      8 H         -33.1875   12.1754   30.7743 H      402  DMS402      0.0000
      9 H         -32.0097   11.0492   31.5462 H      402  DMS402      0.0000
     10 H         -32.1309   11.1237   29.7465 H      402  DMS402      0.0000
@<TRIPOS>BOND
     1     1     2    2
     2     1     3    1
     3     1     4    1
     4     3     5    1
     5     3     6    1
     6     3     7    1
     7     4     8    1
     8     4     9    1
     9     4    10    1

