@<TRIPOS>MOLECULE
DMS_2_A_404
 10 9 0 0 0
SMALL
NO_CHARGES

@<TRIPOS>ATOM
      1 S         -17.4280    3.7040   55.4150 S.o    404  DMS404      0.0000
      2 O         -17.6840    3.0300   54.0970 O.2    404  DMS404      0.0000
      3 C1        -17.6390    5.5170   55.3540 C.3    404  DMS404      0.0000
      4 C2        -15.6480    3.6230   55.7190 C.3    404  DMS404      0.0000
      5 H         -17.3527    5.9567   56.3312 H      404  DMS404      0.0000
      6 H         -18.7023    5.7522   55.1434 H      404  DMS404      0.0000
      7 H         -17.0022    5.9416   54.5511 H      404  DMS404      0.0000
      8 H         -15.4101    4.1343   56.6741 H      404  DMS404      0.0000
      9 H         -15.1005    4.1134   54.8882 H      404  DMS404      0.0000
     10 H         -15.3357    2.5609   55.7875 H      404  DMS404      0.0000
@<TRIPOS>BOND
     1     1     2    2
     2     1     3    1
     3     1     4    1
     4     3     5    1
     5     3     6    1
     6     3     7    1
     7     4     8    1
     8     4     9    1
     9     4    10    1

