@<TRIPOS>MOLECULE
DMS_1_A_405
 10 9 0 0 0
SMALL
NO_CHARGES

@<TRIPOS>ATOM
      1 S         -13.7810    9.3640   72.9110 S.o    405  DMS405      0.0000
      2 O         -14.0840    8.4760   74.0680 O.2    405  DMS405      0.0000
      3 C1        -14.7130    8.7310   71.5430 C.3    405  DMS405      0.0000
      4 C2        -12.1730    8.9120   72.3250 C.3    405  DMS405      0.0000
      5 H         -14.4291    9.2655   70.6136 H      405  DMS405      0.0000
      6 H         -15.7945    8.8908   71.7306 H      405  DMS405      0.0000
      7 H         -14.5261    7.6447   71.4163 H      405  DMS405      0.0000
      8 H         -11.9534    9.4443   71.3770 H      405  DMS405      0.0000
      9 H         -12.1158    7.8170   72.1557 H      405  DMS405      0.0000
     10 H         -11.4131    9.1995   73.0802 H      405  DMS405      0.0000
@<TRIPOS>BOND
     1     1     2    2
     2     1     3    1
     3     1     4    1
     4     3     5    1
     5     3     6    1
     6     3     7    1
     7     4     8    1
     8     4     9    1
     9     4    10    1

