DMS_2_A_405
  -ISIS-            3D

 10  9  0  0  0  0  0  0  0  0  1 V2000
  -29.6700    9.3640   20.7820 S   0  0  0  0  0
  -29.3670    8.4760   19.6250 O   0  0  0  0  0
  -28.7380    8.7310   22.1500 C   0  0  0  0  0
  -31.2780    8.9120   21.3680 C   0  0  0  0  0
  -29.0219    9.2655   23.0794 H   0  0  0  0  0
  -27.6565    8.8908   21.9624 H   0  0  0  0  0
  -28.9249    7.6447   22.2767 H   0  0  0  0  0
  -31.4976    9.4443   22.3160 H   0  0  0  0  0
  -31.3352    7.8170   21.5373 H   0  0  0  0  0
  -32.0379    9.1995   20.6128 H   0  0  0  0  0
  1  2  2  0  0  0
  1  3  1  0  0  0
  1  4  1  0  0  0
  3  5  1  0  0  0
  3  6  1  0  0  0
  3  7  1  0  0  0
  4  8  1  0  0  0
  4  9  1  0  0  0
  4 10  1  0  0  0
M  END
$$$$
