@<TRIPOS>MOLECULE
DMS_1_A_402
 10 9 0 0 0
SMALL
NO_CHARGES

@<TRIPOS>ATOM
      1 S         -12.5020   12.9860   63.0220 S.o    402  DMS402      0.0000
      2 O         -13.7790   12.3140   63.3550 O.2    402  DMS402      0.0000
      3 C1        -12.0010   13.8030   64.4990 C.3    402  DMS402      0.0000
      4 C2        -11.2710   11.7210   63.0130 C.3    402  DMS402      0.0000
      5 H         -10.9773   14.2120   64.3758 H      402  DMS402      0.0000
      6 H         -12.0157   13.1003   65.3573 H      402  DMS402      0.0000
      7 H         -12.6960   14.6416   64.7092 H      402  DMS402      0.0000
      8 H         -10.2635   12.1754   62.9187 H      402  DMS402      0.0000
      9 H         -11.4413   11.0492   62.1468 H      402  DMS402      0.0000
     10 H         -11.3201   11.1237   63.9465 H      402  DMS402      0.0000
@<TRIPOS>BOND
     1     1     2    2
     2     1     3    1
     3     1     4    1
     4     3     5    1
     5     3     6    1
     6     3     7    1
     7     4     8    1
     8     4     9    1
     9     4    10    1

