@<TRIPOS>MOLECULE
DMS_2_A_402
 10 9 0 0 0
SMALL
NO_CHARGES

@<TRIPOS>ATOM
      1 S          -6.1330   -0.9140    6.4010 S.o    402  DMS402      0.0000
      2 O          -7.0560   -0.7660    7.5430 O.2    402  DMS402      0.0000
      3 C1         -7.1660   -0.8680    4.9530 C.3    402  DMS402      0.0000
      4 C2         -5.7210   -2.6270    6.3180 C.3    402  DMS402      0.0000
      5 H          -6.5672   -1.1227    4.0547 H      402  DMS402      0.0000
      6 H          -7.5779    0.1545    4.8293 H      402  DMS402      0.0000
      7 H          -8.0064   -1.5853    5.0527 H      402  DMS402      0.0000
      8 H          -5.1560   -2.8352    5.3865 H      402  DMS402      0.0000
      9 H          -6.6388   -3.2499    6.3396 H      402  DMS402      0.0000
     10 H          -5.0854   -2.8943    7.1869 H      402  DMS402      0.0000
@<TRIPOS>BOND
     1     1     2    2
     2     1     3    1
     3     1     4    1
     4     3     5    1
     5     3     6    1
     6     3     7    1
     7     4     8    1
     8     4     9    1
     9     4    10    1

