@<TRIPOS>MOLECULE
DMS_2_A_403
 10 9 0 0 0
SMALL
NO_CHARGES

@<TRIPOS>ATOM
      1 S          -2.1900  -18.9870   -8.1140 S.o    403  DMS403      0.0000
      2 O          -3.3940  -18.7910   -9.0110 O.2    403  DMS403      0.0000
      3 C1         -0.8040  -18.2780   -8.9610 C.3    403  DMS403      0.0000
      4 C2         -1.7180  -20.6860   -8.3100 C.3    403  DMS403      0.0000
      5 H           0.1339  -18.5245   -8.4225 H      403  DMS403      0.0000
      6 H          -0.9189  -17.1751   -8.9910 H      403  DMS403      0.0000
      7 H          -0.7463  -18.6619  -10.0000 H      403  DMS403      0.0000
      8 H          -0.7548  -20.8722   -7.7922 H      403  DMS403      0.0000
      9 H          -1.6152  -20.9388   -9.3852 H      403  DMS403      0.0000
     10 H          -2.4961  -21.3360   -7.8604 H      403  DMS403      0.0000
@<TRIPOS>BOND
     1     1     2    2
     2     1     3    1
     3     1     4    1
     4     3     5    1
     5     3     6    1
     6     3     7    1
     7     4     8    1
     8     4     9    1
     9     4    10    1

