DMS_2_A_402
  -ISIS-            3D

 10  9  0  0  0  0  0  0  0  0  1 V2000
   -6.1330   -0.9140    6.4010 S   0  0  0  0  0
   -7.0560   -0.7660    7.5430 O   0  0  0  0  0
   -7.1660   -0.8680    4.9530 C   0  0  0  0  0
   -5.7210   -2.6270    6.3180 C   0  0  0  0  0
   -6.5672   -1.1227    4.0547 H   0  0  0  0  0
   -7.5779    0.1545    4.8293 H   0  0  0  0  0
   -8.0064   -1.5853    5.0527 H   0  0  0  0  0
   -5.1560   -2.8352    5.3865 H   0  0  0  0  0
   -6.6388   -3.2499    6.3396 H   0  0  0  0  0
   -5.0854   -2.8943    7.1869 H   0  0  0  0  0
  1  2  2  0  0  0
  1  3  1  0  0  0
  1  4  1  0  0  0
  3  5  1  0  0  0
  3  6  1  0  0  0
  3  7  1  0  0  0
  4  8  1  0  0  0
  4  9  1  0  0  0
  4 10  1  0  0  0
M  END
$$$$
