DMS_2_A_401
  -ISIS-            3D

 10  9  0  0  0  0  0  0  0  0  1 V2000
   -6.9130  -28.2790  -21.2480 S   0  0  0  0  0
   -7.9260  -27.5540  -22.0700 O   0  0  0  0  0
   -5.7580  -28.9510  -22.4170 C   0  0  0  0  0
   -5.8650  -27.0250  -20.5710 C   0  0  0  0  0
   -4.8840  -29.3749  -21.8814 H   0  0  0  0  0
   -5.4145  -28.1640  -23.1194 H   0  0  0  0  0
   -6.2500  -29.7603  -22.9944 H   0  0  0  0  0
   -4.9894  -27.4925  -20.0759 H   0  0  0  0  0
   -6.4315  -26.4411  -19.8170 H   0  0  0  0  0
   -5.5146  -26.3387  -21.3691 H   0  0  0  0  0
  1  2  2  0  0  0
  1  3  1  0  0  0
  1  4  1  0  0  0
  3  5  1  0  0  0
  3  6  1  0  0  0
  3  7  1  0  0  0
  4  8  1  0  0  0
  4  9  1  0  0  0
  4 10  1  0  0  0
M  END
$$$$
