@<TRIPOS>MOLECULE
DMS_2_A_402
 10 9 0 0 0
SMALL
NO_CHARGES

@<TRIPOS>ATOM
      1 S          -6.2560   -0.9790    6.4260 S.o    402  DMS402      0.0000
      2 O          -7.3350   -1.1310    7.4420 O.2    402  DMS402      0.0000
      3 C1         -7.0770   -0.9670    4.8370 C.3    402  DMS402      0.0000
      4 C2         -5.4910   -2.5700    6.2870 C.3    402  DMS402      0.0000
      5 H          -6.3226   -1.0046    4.0245 H      402  DMS402      0.0000
      6 H          -7.6658   -0.0323    4.7369 H      402  DMS402      0.0000
      7 H          -7.7602   -1.8363    4.7491 H      402  DMS402      0.0000
      8 H          -4.7743   -2.5706    5.4402 H      402  DMS402      0.0000
      9 H          -6.2567   -3.3554    6.1231 H      402  DMS402      0.0000
     10 H          -4.9387   -2.7945    7.2224 H      402  DMS402      0.0000
@<TRIPOS>BOND
     1     1     2    2
     2     1     3    1
     3     1     4    1
     4     3     5    1
     5     3     6    1
     6     3     7    1
     7     4     8    1
     8     4     9    1
     9     4    10    1

