@<TRIPOS>MOLECULE
DMS_2_A_401
 10 9 0 0 0
SMALL
NO_CHARGES

@<TRIPOS>ATOM
      1 S          -6.9130  -28.2790  -21.2480 S.o    401  DMS401      0.0000
      2 O          -7.9260  -27.5540  -22.0700 O.2    401  DMS401      0.0000
      3 C1         -5.7580  -28.9510  -22.4170 C.3    401  DMS401      0.0000
      4 C2         -5.8650  -27.0250  -20.5710 C.3    401  DMS401      0.0000
      5 H          -4.8840  -29.3749  -21.8814 H      401  DMS401      0.0000
      6 H          -5.4145  -28.1640  -23.1194 H      401  DMS401      0.0000
      7 H          -6.2500  -29.7603  -22.9944 H      401  DMS401      0.0000
      8 H          -4.9894  -27.4925  -20.0759 H      401  DMS401      0.0000
      9 H          -6.4315  -26.4411  -19.8170 H      401  DMS401      0.0000
     10 H          -5.5146  -26.3387  -21.3691 H      401  DMS401      0.0000
@<TRIPOS>BOND
     1     1     2    2
     2     1     3    1
     3     1     4    1
     4     3     5    1
     5     3     6    1
     6     3     7    1
     7     4     8    1
     8     4     9    1
     9     4    10    1

