@<TRIPOS>MOLECULE
DMS_1_A_402
 10 9 0 0 0
SMALL
NO_CHARGES

@<TRIPOS>ATOM
      1 S           6.0810   -1.0050   -6.3670 S.o    402  DMS402      0.0000
      2 O           6.9710   -0.7560   -7.5410 O.2    402  DMS402      0.0000
      3 C1          7.1250   -0.9170   -4.9320 C.3    402  DMS402      0.0000
      4 C2          5.7840   -2.7510   -6.3520 C.3    402  DMS402      0.0000
      5 H           6.5583   -1.2390   -4.0344 H      402  DMS402      0.0000
      6 H           7.4607    0.1302   -4.7867 H      402  DMS402      0.0000
      7 H           8.0147   -1.5669   -5.0603 H      402  DMS402      0.0000
      8 H           5.2482   -3.0337   -5.4227 H      402  DMS402      0.0000
      9 H           6.7417   -3.3076   -6.4097 H      402  DMS402      0.0000
     10 H           5.1551   -3.0238   -7.2241 H      402  DMS402      0.0000
@<TRIPOS>BOND
     1     1     2    2
     2     1     3    1
     3     1     4    1
     4     3     5    1
     5     3     6    1
     6     3     7    1
     7     4     8    1
     8     4     9    1
     9     4    10    1

