DMS_1_A_401
  -ISIS-            3D

 10  9  0  0  0  0  0  0  0  0  1 V2000
    7.2600  -28.1830   21.2350 S   0  0  0  0  0
    7.9170  -27.1700   22.1090 O   0  0  0  0  0
    6.0300  -28.9850   22.2430 C   0  0  0  0  0
    6.1720  -27.2920   20.1530 C   0  0  0  0  0
    5.4125  -29.6601   21.6156 H   0  0  0  0  0
    5.3773  -28.2307   22.7277 H   0  0  0  0  0
    6.5339  -29.5856   23.0277 H   0  0  0  0  0
    5.5527  -28.0056   19.5716 H   0  0  0  0  0
    6.7737  -26.6827   19.4479 H   0  0  0  0  0
    5.5109  -26.6204   20.7378 H   0  0  0  0  0
  1  2  2  0  0  0
  1  3  1  0  0  0
  1  4  1  0  0  0
  3  5  1  0  0  0
  3  6  1  0  0  0
  3  7  1  0  0  0
  4  8  1  0  0  0
  4  9  1  0  0  0
  4 10  1  0  0  0
M  END
$$$$
