@<TRIPOS>MOLECULE
DMS_1_A_403
 10 9 0 0 0
SMALL
NO_CHARGES

@<TRIPOS>ATOM
      1 S           2.2820  -19.0400    8.1160 S.o    403  DMS403      0.0000
      2 O           3.5990  -18.7640    8.7900 O.2    403  DMS403      0.0000
      3 C1          1.0660  -18.1310    9.0250 C.3    403  DMS403      0.0000
      4 C2          1.7960  -20.6740    8.6350 C.3    403  DMS403      0.0000
      5 H           0.0502  -18.4037    8.6726 H      403  DMS403      0.0000
      6 H           1.2214  -17.0450    8.8607 H      403  DMS403      0.0000
      7 H           1.1510  -18.3470   10.1097 H      403  DMS403      0.0000
      8 H           0.7628  -20.8859    8.2914 H      403  DMS403      0.0000
      9 H           1.8436  -20.7587    9.7400 H      403  DMS403      0.0000
     10 H           2.4831  -21.4199    8.1856 H      403  DMS403      0.0000
@<TRIPOS>BOND
     1     1     2    2
     2     1     3    1
     3     1     4    1
     4     3     5    1
     5     3     6    1
     6     3     7    1
     7     4     8    1
     8     4     9    1
     9     4    10    1

