EDO_1_B_402
  -ISIS-            3D

 10  9  0  0  0  0  0  0  0  0  1 V2000
   31.0970    1.9250    5.1560 C   0  0  0  0  0
   29.7170    1.6040    5.3720 O   0  0  0  0  0
   31.9800    0.7810    5.6470 C   0  0  0  0  0
   33.3260    1.0080    5.1920 O   0  0  0  0  0
   31.3522    2.8664    5.6867 H   0  0  0  0  0
   31.2630    2.0957    4.0709 H   0  0  0  0  0
   29.1927    2.3249    5.0492 H   0  0  0  0  0
   31.6162   -0.1873    5.2426 H   0  0  0  0  0
   31.9590    0.7172    6.7552 H   0  0  0  0  0
   33.8626    0.2863    5.4919 H   0  0  0  0  0
  1  2  1  0  0  0
  1  3  1  0  0  0
  1  5  1  0  0  0
  1  6  1  0  0  0
  2  7  1  0  0  0
  3  4  1  0  0  0
  3  8  1  0  0  0
  3  9  1  0  0  0
  4 10  1  0  0  0
M  END
$$$$
