@<TRIPOS>MOLECULE
EDO_1_B_402
 10 9 0 0 0
SMALL
NO_CHARGES

@<TRIPOS>ATOM
      1 C1         31.0970    1.9250    5.1560 C.3    402  EDO402      0.0000
      2 O1         29.7170    1.6040    5.3720 O.3    402  EDO402      0.0000
      3 C2         31.9800    0.7810    5.6470 C.3    402  EDO402      0.0000
      4 O2         33.3260    1.0080    5.1920 O.3    402  EDO402      0.0000
      5 H          31.3522    2.8664    5.6867 H      402  EDO402      0.0000
      6 H          31.2630    2.0957    4.0709 H      402  EDO402      0.0000
      7 H          29.1927    2.3249    5.0492 H      402  EDO402      0.0000
      8 H          31.6162   -0.1873    5.2426 H      402  EDO402      0.0000
      9 H          31.9590    0.7172    6.7552 H      402  EDO402      0.0000
     10 H          33.8626    0.2863    5.4919 H      402  EDO402      0.0000
@<TRIPOS>BOND
     1     1     2    1
     2     1     3    1
     3     1     5    1
     4     1     6    1
     5     2     7    1
     6     3     4    1
     7     3     8    1
     8     3     9    1
     9     4    10    1

