EDO_1_A_405
  -ISIS-            3D

 10  9  0  0  0  0  0  0  0  0  1 V2000
   -8.8020    7.3580   47.1850 C   0  0  0  0  0
   -8.6750    7.7800   45.8170 O   0  0  0  0  0
   -9.4790    5.9950   47.2260 C   0  0  0  0  0
   -9.4610    5.4990   48.5710 O   0  0  0  0  0
   -9.3746    8.1115   47.7656 H   0  0  0  0  0
   -7.7872    7.2979   47.6303 H   0  0  0  0  0
   -9.5033    8.1451   45.5344 H   0  0  0  0  0
   -8.9358    5.2757   46.5785 H   0  0  0  0  0
  -10.5236    6.0516   46.8539 H   0  0  0  0  0
  -10.1602    5.9157   49.0576 H   0  0  0  0  0
  1  2  1  0  0  0
  1  3  1  0  0  0
  1  5  1  0  0  0
  1  6  1  0  0  0
  2  7  1  0  0  0
  3  4  1  0  0  0
  3  8  1  0  0  0
  3  9  1  0  0  0
  4 10  1  0  0  0
M  END
$$$$
