EDO_1_A_404
  -ISIS-            3D

 10  9  0  0  0  0  0  0  0  0  1 V2000
    0.3240   -9.2010   53.5660 C   0  0  0  0  0
    0.0450   -8.0000   54.2980 O   0  0  0  0  0
    1.4660   -9.9680   54.2290 C   0  0  0  0  0
    2.7240   -9.5110   53.7230 O   0  0  0  0  0
    0.5639   -8.9602   52.5092 H   0  0  0  0  0
   -0.5910   -9.8313   53.5589 H   0  0  0  0  0
   -0.6730   -7.5521   53.8706 H   0  0  0  0  0
    1.3769  -11.0496   53.9956 H   0  0  0  0  0
    1.4354   -9.8731   55.3343 H   0  0  0  0  0
    2.8228   -8.6080   53.9970 H   0  0  0  0  0
  1  2  1  0  0  0
  1  3  1  0  0  0
  1  5  1  0  0  0
  1  6  1  0  0  0
  2  7  1  0  0  0
  3  4  1  0  0  0
  3  8  1  0  0  0
  3  9  1  0  0  0
  4 10  1  0  0  0
M  END
$$$$
