@<TRIPOS>MOLECULE
EDO_1_A_404
 10 9 0 0 0
SMALL
NO_CHARGES

@<TRIPOS>ATOM
      1 C1          0.3240   -9.2010   53.5660 C.3    404  EDO404      0.0000
      2 O1          0.0450   -8.0000   54.2980 O.3    404  EDO404      0.0000
      3 C2          1.4660   -9.9680   54.2290 C.3    404  EDO404      0.0000
      4 O2          2.7240   -9.5110   53.7230 O.3    404  EDO404      0.0000
      5 H           0.5639   -8.9602   52.5092 H      404  EDO404      0.0000
      6 H          -0.5910   -9.8313   53.5589 H      404  EDO404      0.0000
      7 H          -0.6730   -7.5521   53.8706 H      404  EDO404      0.0000
      8 H           1.3769  -11.0496   53.9956 H      404  EDO404      0.0000
      9 H           1.4354   -9.8731   55.3343 H      404  EDO404      0.0000
     10 H           2.8228   -8.6080   53.9970 H      404  EDO404      0.0000
@<TRIPOS>BOND
     1     1     2    1
     2     1     3    1
     3     1     5    1
     4     1     6    1
     5     2     7    1
     6     3     4    1
     7     3     8    1
     8     3     9    1
     9     4    10    1

