@<TRIPOS>MOLECULE
DMS_1_A_401
 10 9 0 0 0
SMALL
NO_CHARGES

@<TRIPOS>ATOM
      1 S           7.0010  -28.0240   21.5450 S.o    401  DMS401      0.0000
      2 O           7.7480  -27.0600   22.3890 O.2    401  DMS401      0.0000
      3 C1          5.7020  -28.6790   22.5790 C.3    401  DMS401      0.0000
      4 C2          5.9990  -27.0340   20.4900 C.3    401  DMS401      0.0000
      5 H           5.0072  -29.2900   21.9672 H      401  DMS401      0.0000
      6 H           5.1406  -27.8535   23.0633 H      401  DMS401      0.0000
      7 H           6.1488  -29.3224   23.3645 H      401  DMS401      0.0000
      8 H           5.2939  -27.6782   19.9259 H      401  DMS401      0.0000
      9 H           6.6454  -26.4954   19.7671 H      401  DMS401      0.0000
     10 H           5.4253  -26.2918   21.0823 H      401  DMS401      0.0000
@<TRIPOS>BOND
     1     1     2    2
     2     1     3    1
     3     1     4    1
     4     3     5    1
     5     3     6    1
     6     3     7    1
     7     4     8    1
     8     4     9    1
     9     4    10    1

