DMS_2_A_401
  -ISIS-            3D

 10  9  0  0  0  0  0  0  0  0  1 V2000
   -7.0010  -28.0240  -21.5450 S   0  0  0  0  0
   -7.7480  -27.0600  -22.3890 O   0  0  0  0  0
   -5.7020  -28.6790  -22.5790 C   0  0  0  0  0
   -5.9990  -27.0340  -20.4900 C   0  0  0  0  0
   -5.0072  -29.2900  -21.9672 H   0  0  0  0  0
   -5.1406  -27.8535  -23.0633 H   0  0  0  0  0
   -6.1488  -29.3224  -23.3645 H   0  0  0  0  0
   -5.2939  -27.6782  -19.9259 H   0  0  0  0  0
   -6.6454  -26.4954  -19.7671 H   0  0  0  0  0
   -5.4253  -26.2918  -21.0823 H   0  0  0  0  0
  1  2  2  0  0  0
  1  3  1  0  0  0
  1  4  1  0  0  0
  3  5  1  0  0  0
  3  6  1  0  0  0
  3  7  1  0  0  0
  4  8  1  0  0  0
  4  9  1  0  0  0
  4 10  1  0  0  0
M  END
$$$$
