DMS_2_A_403
  -ISIS-            3D

 10  9  0  0  0  0  0  0  0  0  1 V2000
   -2.4620  -18.7210   -8.0830 S   0  0  0  0  0
   -3.6920  -18.8290   -8.9790 O   0  0  0  0  0
   -1.1120  -18.3740   -9.1890 C   0  0  0  0  0
   -1.9980  -20.3880   -7.7550 C   0  0  0  0  0
   -0.1481  -18.4530   -8.6457 H   0  0  0  0  0
   -1.2167  -17.3412   -9.5794 H   0  0  0  0  0
   -1.1153  -19.0822  -10.0430 H   0  0  0  0  0
   -1.0095  -20.4149   -7.2522 H   0  0  0  0  0
   -1.9496  -20.9741   -8.6959 H   0  0  0  0  0
   -2.7493  -20.8520   -7.0836 H   0  0  0  0  0
  1  2  2  0  0  0
  1  3  1  0  0  0
  1  4  1  0  0  0
  3  5  1  0  0  0
  3  6  1  0  0  0
  3  7  1  0  0  0
  4  8  1  0  0  0
  4  9  1  0  0  0
  4 10  1  0  0  0
M  END
$$$$
