@<TRIPOS>MOLECULE
BME_1_A_202
 9 8 0 0 0
SMALL
NO_CHARGES

@<TRIPOS>ATOM
      1 C1         47.7690  -24.3210    1.4640 C.3    202  BME202      0.0000
      2 C2         47.3530  -25.7500    1.8260 C.3    202  BME202      0.0000
      3 O1         47.2890  -23.4070    2.4370 O.3    202  BME202      0.0000
      4 S2         45.8820  -26.2800    0.9080 S.3    202  BME202      0.0000
      5 H          47.4159  -24.0320    0.4512 H      202  BME202      0.0000
      6 H          48.8794  -24.2556    1.4448 H      202  BME202      0.0000
      7 H          47.1832  -25.8384    2.9213 H      202  BME202      0.0000
      8 H          48.1929  -26.4404    1.5880 H      202  BME202      0.0000
      9 H          47.5174  -22.5283    2.1640 H      202  BME202      0.0000
@<TRIPOS>BOND
     1     1     2    1
     2     1     3    1
     3     1     5    1
     4     1     6    1
     5     2     4    1
     6     2     7    1
     7     2     8    1
     8     3     9    1

