DMS_2_A_402
  -ISIS-            3D

 10  9  0  0  0  0  0  0  0  0  1 V2000
   -6.1610   -1.0600    6.3320 S   0  0  0  0  0
   -7.2110   -0.9880    7.3890 O   0  0  0  0  0
   -7.0360   -0.8820    4.7860 C   0  0  0  0  0
   -5.7750   -2.7740    6.1540 C   0  0  0  0  0
   -6.3484   -1.0824    3.9390 H   0  0  0  0  0
   -7.4170    0.1561    4.6992 H   0  0  0  0  0
   -7.8928   -1.5854    4.7422 H   0  0  0  0  0
   -5.1196   -2.9242    5.2719 H   0  0  0  0  0
   -6.7017   -3.3714    6.0312 H   0  0  0  0  0
   -5.2390   -3.1253    7.0593 H   0  0  0  0  0
  1  2  2  0  0  0
  1  3  1  0  0  0
  1  4  1  0  0  0
  3  5  1  0  0  0
  3  6  1  0  0  0
  3  7  1  0  0  0
  4  8  1  0  0  0
  4  9  1  0  0  0
  4 10  1  0  0  0
M  END
$$$$
