@<TRIPOS>MOLECULE
DMS_2_A_403
 10 9 0 0 0
SMALL
NO_CHARGES

@<TRIPOS>ATOM
      1 S          -2.3190  -18.9820   -8.0290 S.o    403  DMS403      0.0000
      2 O          -3.5970  -18.4760   -8.6800 O.2    403  DMS403      0.0000
      3 C1         -0.9700  -18.1250   -8.8150 C.3    403  DMS403      0.0000
      4 C2         -2.0390  -20.5910   -8.7490 C.3    403  DMS403      0.0000
      5 H          -0.0050  -18.5661   -8.4911 H      403  DMS403      0.0000
      6 H          -0.9935  -17.0563   -8.5188 H      403  DMS403      0.0000
      7 H          -1.0582  -18.1965   -9.9182 H      403  DMS403      0.0000
      8 H          -1.0474  -20.9758   -8.4337 H      403  DMS403      0.0000
      9 H          -2.0778  -20.5305   -9.8558 H      403  DMS403      0.0000
     10 H          -2.8239  -21.2910   -8.3969 H      403  DMS403      0.0000
@<TRIPOS>BOND
     1     1     2    2
     2     1     3    1
     3     1     4    1
     4     3     5    1
     5     3     6    1
     6     3     7    1
     7     4     8    1
     8     4     9    1
     9     4    10    1

