@<TRIPOS>MOLECULE
DMS_2_A_402
 10 9 0 0 0
SMALL
NO_CHARGES

@<TRIPOS>ATOM
      1 S          -6.1610   -1.0600    6.3320 S.o    402  DMS402      0.0000
      2 O          -7.2110   -0.9880    7.3890 O.2    402  DMS402      0.0000
      3 C1         -7.0360   -0.8820    4.7860 C.3    402  DMS402      0.0000
      4 C2         -5.7750   -2.7740    6.1540 C.3    402  DMS402      0.0000
      5 H          -6.3484   -1.0824    3.9390 H      402  DMS402      0.0000
      6 H          -7.4170    0.1561    4.6992 H      402  DMS402      0.0000
      7 H          -7.8928   -1.5854    4.7422 H      402  DMS402      0.0000
      8 H          -5.1196   -2.9242    5.2719 H      402  DMS402      0.0000
      9 H          -6.7017   -3.3714    6.0312 H      402  DMS402      0.0000
     10 H          -5.2390   -3.1253    7.0593 H      402  DMS402      0.0000
@<TRIPOS>BOND
     1     1     2    2
     2     1     3    1
     3     1     4    1
     4     3     5    1
     5     3     6    1
     6     3     7    1
     7     4     8    1
     8     4     9    1
     9     4    10    1

