@<TRIPOS>MOLECULE
DMS_2_A_1005
 10 9 0 0 0
SMALL
NO_CHARGES

@<TRIPOS>ATOM
      1 S         -13.0140    5.0350  -23.6200 S.o   1005  DMS1005      0.0000
      2 O         -12.0960    6.2120  -23.8990 O.2   1005  DMS1005      0.0000
      3 C1        -13.9200    5.4340  -22.1380 C.3   1005  DMS1005      0.0000
      4 C2        -11.9730    3.7730  -22.9320 C.3   1005  DMS1005      0.0000
      5 H         -14.4971    4.5490  -21.8005 H     1005  DMS1005      0.0000
      6 H         -14.6262    6.2619  -22.3533 H     1005  DMS1005      0.0000
      7 H         -13.2246    5.7518  -21.3341 H     1005  DMS1005      0.0000
      8 H         -12.5942    2.9282  -22.5707 H     1005  DMS1005      0.0000
      9 H         -11.3763    4.1798  -22.0898 H     1005  DMS1005      0.0000
     10 H         -11.2829    3.3996  -23.7161 H     1005  DMS1005      0.0000
@<TRIPOS>BOND
     1     1     2    2
     2     1     3    1
     3     1     4    1
     4     3     5    1
     5     3     6    1
     6     3     7    1
     7     4     8    1
     8     4     9    1
     9     4    10    1

