DMS_2_A_1003
  -ISIS-            3D

 10  9  0  0  0  0  0  0  0  0  1 V2000
   -6.1840   -1.0500    6.2750 S   0  0  0  0  0
   -7.1710   -0.8870    7.4060 O   0  0  0  0  0
   -7.1100   -0.8800    4.7580 C   0  0  0  0  0
   -5.8320   -2.7910    6.1540 C   0  0  0  0  0
   -6.4606   -1.1240    3.8923 H   0  0  0  0  0
   -7.4614    0.1675    4.6595 H   0  0  0  0  0
   -7.9882   -1.5573    4.7652 H   0  0  0  0  0
   -5.2148   -2.9880    5.2535 H   0  0  0  0  0
   -6.7750   -3.3714    6.0908 H   0  0  0  0  0
   -5.2681   -3.1139    7.0530 H   0  0  0  0  0
  1  2  2  0  0  0
  1  3  1  0  0  0
  1  4  1  0  0  0
  3  5  1  0  0  0
  3  6  1  0  0  0
  3  7  1  0  0  0
  4  8  1  0  0  0
  4  9  1  0  0  0
  4 10  1  0  0  0
M  END
$$$$
