@<TRIPOS>MOLECULE
FMT_1_A_7104
 3 2 0 0 0
SMALL
NO_CHARGES

@<TRIPOS>ATOM
      1 C          77.1950   20.0290    4.0980 C.2   7104  FMT7104      0.0000
      2 O1         78.2450   20.4140    3.6280 O.2   7104  FMT7104      0.0000
      3 O2         76.3850   20.7600    4.7980 O.2   7104  FMT7104     -0.5000
@<TRIPOS>BOND
     1     1     2   ar
     2     1     3   ar

