FMT_1_A_7109
  -ISIS-            3D

  4  3  0  0  0  0  0  0  0  0  1 V2000
   99.4980    9.2340  -15.7420 C   0  0  0  0  0
   98.6950    9.2510  -16.6540 O   0  0  0  0  0
   99.5340   10.0980  -14.7690 O   0  0  0  0  0
  100.2887    8.3931  -15.7323 H   0  0  0  0  0
  1  2  2  0  0  0
  1  3  1  0  0  0
  1  4  1  0  0  0
M  END
$$$$
