FMT_1_A_7105
  -ISIS-            3D

  4  3  0  0  0  0  0  0  0  0  1 V2000
   84.2900   22.4150   13.5710 C   0  0  0  0  0
   84.4390   21.4780   12.8130 O   0  0  0  0  0
   85.2210   23.2690   13.8820 O   0  0  0  0  0
   83.2516   22.5637   14.0526 H   0  0  0  0  0
  1  2  2  0  0  0
  1  3  1  0  0  0
  1  4  1  0  0  0
M  END
$$$$
