@<TRIPOS>MOLECULE
FMT_1_A_7105
 4 3 0 0 0
SMALL
NO_CHARGES

@<TRIPOS>ATOM
      1 C          84.2900   22.4150   13.5710 C.2   7105  FMT7105      0.0000
      2 O1         84.4390   21.4780   12.8130 O.2   7105  FMT7105     -0.5000
      3 O2         85.2210   23.2690   13.8820 O.3   7105  FMT7105     -0.5000
      4 H          83.2516   22.5637   14.0526 H     7105  FMT7105      0.0000
@<TRIPOS>BOND
     1     1     2   ar
     2     1     3   ar
     3     1     4    1

