@<TRIPOS>MOLECULE
SFG_1_A_7103
 50 52 0 0 0
SMALL
NO_CHARGES

@<TRIPOS>ATOM
      1 N          80.6410   18.6380   -0.8610 N.3   7103  SFG7103      1.0000
      2 CA         79.2980   18.1640   -0.5720 C.3   7103  SFG7103      0.0000
      3 C          78.2860   19.0010   -1.3240 C.2   7103  SFG7103      0.0000
      4 O          77.1680   19.2360   -0.8090 O.co2 7103  SFG7103     -0.5000
      5 OXT        78.5980   19.4250   -2.4630 O.co2 7103  SFG7103     -0.5000
      6 CB         79.0650   18.1600    0.9470 C.3   7103  SFG7103      0.0000
      7 CG         80.0960   17.2410    1.6200 C.3   7103  SFG7103      0.0000
      8 CD         79.8220   16.9490    3.0980 C.3   7103  SFG7103      0.0000
      9 NE         79.6970   18.2050    3.8150 N.3   7103  SFG7103      0.0000
     10 C5'        80.9640   16.1480    3.7310 C.3   7103  SFG7103      0.0000
     11 C4'        81.1340   14.7550    3.1280 C.3   7103  SFG7103      0.0000
     12 O4'        82.3920   14.1810    3.4920 O.3   7103  SFG7103      0.0000
     13 C3'        80.0690   13.7660    3.5820 C.3   7103  SFG7103      0.0000
     14 O3'        79.2220   13.4530    2.4790 O.3   7103  SFG7103      0.0000
     15 C2'        80.8470   12.5550    4.0780 C.3   7103  SFG7103      0.0000
     16 O2'        80.2670   11.3010    3.6980 O.3   7103  SFG7103      0.0000
     17 C1'        82.2050   12.7670    3.4350 C.3   7103  SFG7103      0.0000
     18 N9         83.2780   12.0090    4.1110 N.ar  7103  SFG7103      0.0000
     19 C8         83.6090   12.0920    5.4130 C.ar  7103  SFG7103      0.0000
     20 N7         84.6330   11.2530    5.6870 N.ar  7103  SFG7103      0.0000
     21 C5         84.9620   10.6230    4.5530 C.ar  7103  SFG7103      0.0000
     22 C6         85.9510    9.6020    4.1590 C.ar  7103  SFG7103      0.0000
     23 N6         86.8160    9.0950    5.0680 N.pl3 7103  SFG7103      0.0000
     24 N1         85.9680    9.2060    2.8660 N.ar  7103  SFG7103      0.0000
     25 C2         85.1120    9.7070    1.9500 C.ar  7103  SFG7103      0.0000
     26 N3         84.1830   10.6360    2.2520 N.ar  7103  SFG7103      0.0000
     27 C4         84.0670   11.1240    3.5150 C.ar  7103  SFG7103      0.0000
     28 H          81.3506   18.0119   -0.4956 H     7103  SFG7103      0.0000
     29 H          80.7951   19.5633   -0.4696 H     7103  SFG7103      0.0000
     30 H          79.1950   17.1193   -0.9545 H     7103  SFG7103      0.0000
     31 H          78.0402   17.7832    1.1689 H     7103  SFG7103      0.0000
     32 H          79.1330   19.1926    1.3582 H     7103  SFG7103      0.0000
     33 H          81.1110   17.6909    1.5393 H     7103  SFG7103      0.0000
     34 H          80.1204   16.2823    1.0561 H     7103  SFG7103      0.0000
     35 H          78.8636   16.3873    3.1925 H     7103  SFG7103      0.0000
     36 H          80.5688   18.7272    3.8095 H     7103  SFG7103      0.0000
     37 H          79.4382   18.0488    4.7853 H     7103  SFG7103      0.0000
     38 H          80.8100   16.0537    4.8293 H     7103  SFG7103      0.0000
     39 H          81.9181   16.7085    3.6044 H     7103  SFG7103      0.0000
     40 H          81.1229   14.8226    2.0203 H     7103  SFG7103      0.0000
     41 H          79.4526   14.1764    4.4088 H     7103  SFG7103      0.0000
     42 H          78.9853   12.5365    2.5641 H     7103  SFG7103      0.0000
     43 H          80.9306   12.6122    5.1844 H     7103  SFG7103      0.0000
     44 H          80.8778   10.6190    3.9463 H     7103  SFG7103      0.0000
     45 H          82.1781   12.4439    2.3714 H     7103  SFG7103      0.0000
     46 H          83.1899   12.7120    6.2155 H     7103  SFG7103      0.0000
     47 H          85.1754    9.3409    0.9127 H     7103  SFG7103      0.0000
     48 H          87.4726    8.3944    4.7023 H     7103  SFG7103      0.0000
     49 H          86.7488    9.4451    6.0321 H     7103  SFG7103      0.0000
     50 H          80.8028   18.6910   -1.8625 H     7103  SFG7103      0.0000
@<TRIPOS>BOND
     1     1     2    1
     2     1    28    1
     3     1    29    1
     4     2     3    1
     5     2     6    1
     6     2    30    1
     7     3     4   ar
     8     3     5   ar
     9     6     7    1
    10     6    31    1
    11     6    32    1
    12     7     8    1
    13     7    33    1
    14     7    34    1
    15     8     9    1
    16     8    10    1
    17     8    35    1
    18     9    36    1
    19     9    37    1
    20    10    11    1
    21    10    38    1
    22    10    39    1
    23    11    12    1
    24    11    13    1
    25    11    40    1
    26    12    17    1
    27    13    14    1
    28    13    15    1
    29    13    41    1
    30    14    42    1
    31    15    16    1
    32    15    17    1
    33    15    43    1
    34    16    44    1
    35    17    18    1
    36    17    45    1
    37    18    19   ar
    38    18    27   ar
    39    19    20   ar
    40    19    46    1
    41    20    21   ar
    42    21    22   ar
    43    21    27   ar
    44    22    23    1
    45    22    24   ar
    46    23    48    1
    47    23    49    1
    48    24    25   ar
    49    25    26   ar
    50    25    47    1
    51    26    27   ar
    52     1    50    1

