@<TRIPOS>MOLECULE
DMS_1_A_402
 10 9 0 0 0
SMALL
NO_CHARGES

@<TRIPOS>ATOM
      1 S           6.2070   -1.0650   -6.2790 S.o    402  DMS402      0.0000
      2 O           7.1620   -0.8800   -7.3920 O.2    402  DMS402      0.0000
      3 C1          7.1470   -0.9530   -4.7570 C.3    402  DMS402      0.0000
      4 C2          5.7910   -2.7670   -6.1680 C.3    402  DMS402      0.0000
      5 H           6.4925   -1.1880   -3.8928 H      402  DMS402      0.0000
      6 H           7.5352    0.0798   -4.6429 H      402  DMS402      0.0000
      7 H           8.0012   -1.6603   -4.7794 H      402  DMS402      0.0000
      8 H           5.1707   -2.9474   -5.2662 H      402  DMS402      0.0000
      9 H           6.7085   -3.3881   -6.1149 H      402  DMS402      0.0000
     10 H           5.2092   -3.0624   -7.0651 H      402  DMS402      0.0000
@<TRIPOS>BOND
     1     1     2    2
     2     1     3    1
     3     1     4    1
     4     3     5    1
     5     3     6    1
     6     3     7    1
     7     4     8    1
     8     4     9    1
     9     4    10    1

