DMS_1_A_402
  -ISIS-            3D

 10  9  0  0  0  0  0  0  0  0  1 V2000
    6.2070   -1.0650   -6.2790 S   0  0  0  0  0
    7.1620   -0.8800   -7.3920 O   0  0  0  0  0
    7.1470   -0.9530   -4.7570 C   0  0  0  0  0
    5.7910   -2.7670   -6.1680 C   0  0  0  0  0
    6.4925   -1.1880   -3.8928 H   0  0  0  0  0
    7.5352    0.0798   -4.6429 H   0  0  0  0  0
    8.0012   -1.6603   -4.7794 H   0  0  0  0  0
    5.1707   -2.9474   -5.2662 H   0  0  0  0  0
    6.7085   -3.3881   -6.1149 H   0  0  0  0  0
    5.2092   -3.0624   -7.0651 H   0  0  0  0  0
  1  2  2  0  0  0
  1  3  1  0  0  0
  1  4  1  0  0  0
  3  5  1  0  0  0
  3  6  1  0  0  0
  3  7  1  0  0  0
  4  8  1  0  0  0
  4  9  1  0  0  0
  4 10  1  0  0  0
M  END
$$$$
