DMS_2_A_402
  -ISIS-            3D

 10  9  0  0  0  0  0  0  0  0  1 V2000
   -6.1940   -0.9660    6.2960 S   0  0  0  0  0
   -7.1290   -0.6300    7.3720 O   0  0  0  0  0
   -7.2270   -1.0300    4.8460 C   0  0  0  0  0
   -5.8730   -2.6920    6.4630 C   0  0  0  0  0
   -6.6470   -1.4320    3.9902 H   0  0  0  0  0
   -7.5720   -0.0060    4.5951 H   0  0  0  0  0
   -8.1109   -1.6756    5.0279 H   0  0  0  0  0
   -5.3117   -3.0575    5.5790 H   0  0  0  0  0
   -6.8234   -3.2571    6.5545 H   0  0  0  0  0
   -5.2611   -2.8665    7.3716 H   0  0  0  0  0
  1  2  2  0  0  0
  1  3  1  0  0  0
  1  4  1  0  0  0
  3  5  1  0  0  0
  3  6  1  0  0  0
  3  7  1  0  0  0
  4  8  1  0  0  0
  4  9  1  0  0  0
  4 10  1  0  0  0
M  END
$$$$
