DMS_2_A_404
  -ISIS-            3D

 10  9  0  0  0  0  0  0  0  0  1 V2000
  -21.1040   14.6060   -8.0850 S   0  0  0  0  0
  -22.5580   14.8000   -8.0170 O   0  0  0  0  0
  -20.9030   13.1050   -8.9900 C   0  0  0  0  0
  -20.6850   13.9540   -6.5010 C   0  0  0  0  0
  -19.8459   12.7725   -8.9402 H   0  0  0  0  0
  -21.1699   13.2793  -10.0524 H   0  0  0  0  0
  -21.5593   12.3089   -8.5814 H   0  0  0  0  0
  -19.6331   13.6018   -6.5036 H   0  0  0  0  0
  -21.3550   13.1109   -6.2331 H   0  0  0  0  0
  -20.7894   14.7514   -5.7371 H   0  0  0  0  0
  1  2  2  0  0  0
  1  3  1  0  0  0
  1  4  1  0  0  0
  3  5  1  0  0  0
  3  6  1  0  0  0
  3  7  1  0  0  0
  4  8  1  0  0  0
  4  9  1  0  0  0
  4 10  1  0  0  0
M  END
$$$$
