@<TRIPOS>MOLECULE
DMS_2_A_1002
 10 9 0 0 0
SMALL
NO_CHARGES

@<TRIPOS>ATOM
      1 S          -6.6260  -27.8740  -22.2300 S.o   1002  DMS1002      0.0000
      2 O          -7.4860  -26.9490  -22.9300 O.2   1002  DMS1002      0.0000
      3 C1         -5.3340  -28.1800  -23.3660 C.3   1002  DMS1002      0.0000
      4 C2         -5.7410  -26.8680  -21.0680 C.3   1002  DMS1002      0.0000
      5 H          -4.5226  -28.7502  -22.8693 H     1002  DMS1002      0.0000
      6 H          -4.9230  -27.2269  -23.7585 H     1002  DMS1002      0.0000
      7 H          -5.7212  -28.7807  -24.2145 H     1002  DMS1002      0.0000
      8 H          -4.9272  -27.4605  -20.6022 H     1002  DMS1002      0.0000
      9 H          -6.4353  -26.5273  -20.2726 H     1002  DMS1002      0.0000
     10 H          -5.3070  -25.9805  -21.5733 H     1002  DMS1002      0.0000
@<TRIPOS>BOND
     1     1     2    2
     2     1     3    1
     3     1     4    1
     4     3     5    1
     5     3     6    1
     6     3     7    1
     7     4     8    1
     8     4     9    1
     9     4    10    1

