DMS_2_A_1004
  -ISIS-            3D

 10  9  0  0  0  0  0  0  0  0  1 V2000
   -2.4180  -19.1130   -8.4240 S   0  0  0  0  0
   -3.6630  -18.7450   -9.1030 O   0  0  0  0  0
   -1.2130  -17.9570   -8.9860 C   0  0  0  0  0
   -1.8120  -20.5350   -9.3110 C   0  0  0  0  0
   -0.2045  -18.2669   -8.6438 H   0  0  0  0  0
   -1.4395  -16.9560   -8.5651 H   0  0  0  0  0
   -1.2219  -17.8919  -10.0934 H   0  0  0  0  0
   -0.7894  -20.7873   -8.9630 H   0  0  0  0  0
   -1.7916  -20.3322  -10.4016 H   0  0  0  0  0
   -2.4794  -21.3996   -9.1166 H   0  0  0  0  0
  1  2  2  0  0  0
  1  3  1  0  0  0
  1  4  1  0  0  0
  3  5  1  0  0  0
  3  6  1  0  0  0
  3  7  1  0  0  0
  4  8  1  0  0  0
  4  9  1  0  0  0
  4 10  1  0  0  0
M  END
$$$$
