@<TRIPOS>MOLECULE
DMS_1_A_1004
 10 9 0 0 0
SMALL
NO_CHARGES

@<TRIPOS>ATOM
      1 S           2.4180  -19.1130    8.4240 S.o   1004  DMS1004      0.0000
      2 O           3.6630  -18.7450    9.1030 O.2   1004  DMS1004      0.0000
      3 C1          1.2130  -17.9570    8.9860 C.3   1004  DMS1004      0.0000
      4 C2          1.8120  -20.5350    9.3110 C.3   1004  DMS1004      0.0000
      5 H           0.2045  -18.2669    8.6438 H     1004  DMS1004      0.0000
      6 H           1.4395  -16.9560    8.5651 H     1004  DMS1004      0.0000
      7 H           1.2219  -17.8919   10.0934 H     1004  DMS1004      0.0000
      8 H           0.7894  -20.7873    8.9630 H     1004  DMS1004      0.0000
      9 H           1.7916  -20.3322   10.4016 H     1004  DMS1004      0.0000
     10 H           2.4794  -21.3996    9.1166 H     1004  DMS1004      0.0000
@<TRIPOS>BOND
     1     1     2    2
     2     1     3    1
     3     1     4    1
     4     3     5    1
     5     3     6    1
     6     3     7    1
     7     4     8    1
     8     4     9    1
     9     4    10    1

