@<TRIPOS>MOLECULE
DMS_1_A_1005
 10 9 0 0 0
SMALL
NO_CHARGES

@<TRIPOS>ATOM
      1 S           5.3370    0.2500   18.2630 S.o   1005  DMS1005      0.0000
      2 O           4.7090    1.5800   18.3390 O.2   1005  DMS1005      0.0000
      3 C1          5.4990   -0.2870   19.9390 C.3   1005  DMS1005      0.0000
      4 C2          7.0290    0.5810   17.9400 C.3   1005  DMS1005      0.0000
      5 H           6.1146   -1.2087   19.9815 H     1005  DMS1005      0.0000
      6 H           4.4939   -0.5105   20.3517 H     1005  DMS1005      0.0000
      7 H           5.9746    0.5023   20.5567 H     1005  DMS1005      0.0000
      8 H           7.6192   -0.3545   18.0226 H     1005  DMS1005      0.0000
      9 H           7.4252    1.3291   18.6571 H     1005  DMS1005      0.0000
     10 H           7.1367    0.9786   16.9100 H     1005  DMS1005      0.0000
@<TRIPOS>BOND
     1     1     2    2
     2     1     3    1
     3     1     4    1
     4     3     5    1
     5     3     6    1
     6     3     7    1
     7     4     8    1
     8     4     9    1
     9     4    10    1

