DMS_1_A_1005
  -ISIS-            3D

 10  9  0  0  0  0  0  0  0  0  1 V2000
    5.3370    0.2500   18.2630 S   0  0  0  0  0
    4.7090    1.5800   18.3390 O   0  0  0  0  0
    5.4990   -0.2870   19.9390 C   0  0  0  0  0
    7.0290    0.5810   17.9400 C   0  0  0  0  0
    6.1146   -1.2087   19.9815 H   0  0  0  0  0
    4.4939   -0.5105   20.3517 H   0  0  0  0  0
    5.9746    0.5023   20.5567 H   0  0  0  0  0
    7.6192   -0.3545   18.0226 H   0  0  0  0  0
    7.4252    1.3291   18.6571 H   0  0  0  0  0
    7.1367    0.9786   16.9100 H   0  0  0  0  0
  1  2  2  0  0  0
  1  3  1  0  0  0
  1  4  1  0  0  0
  3  5  1  0  0  0
  3  6  1  0  0  0
  3  7  1  0  0  0
  4  8  1  0  0  0
  4  9  1  0  0  0
  4 10  1  0  0  0
M  END
$$$$
