@<TRIPOS>MOLECULE
DMS_1_A_403
 10 9 0 0 0
SMALL
NO_CHARGES

@<TRIPOS>ATOM
      1 S           9.0240   33.2260    0.8820 S.o    403  DMS403      0.0000
      2 O           8.8900   32.5610    2.1910 O.2    403  DMS403      0.0000
      3 C1          7.3810   33.5050    0.2220 C.3    403  DMS403      0.0000
      4 C2          9.8260   32.0550   -0.2170 C.3    403  DMS403      0.0000
      5 H           7.4602   33.9411   -0.7947 H      403  DMS403      0.0000
      6 H           6.8333   34.2096    0.8806 H      403  DMS403      0.0000
      7 H           6.8289   32.5443    0.1697 H      403  DMS403      0.0000
      8 H           9.8965   32.4918   -1.2341 H      403  DMS403      0.0000
      9 H           9.2380   31.1153   -0.2588 H      403  DMS403      0.0000
     10 H          10.8465   31.8354    0.1582 H      403  DMS403      0.0000
@<TRIPOS>BOND
     1     1     2    2
     2     1     3    1
     3     1     4    1
     4     3     5    1
     5     3     6    1
     6     3     7    1
     7     4     8    1
     8     4     9    1
     9     4    10    1

