DMS_1_A_403
  -ISIS-            3D

 10  9  0  0  0  0  0  0  0  0  1 V2000
    9.0240   33.2260    0.8820 S   0  0  0  0  0
    8.8900   32.5610    2.1910 O   0  0  0  0  0
    7.3810   33.5050    0.2220 C   0  0  0  0  0
    9.8260   32.0550   -0.2170 C   0  0  0  0  0
    7.4602   33.9411   -0.7947 H   0  0  0  0  0
    6.8333   34.2096    0.8806 H   0  0  0  0  0
    6.8289   32.5443    0.1697 H   0  0  0  0  0
    9.8965   32.4918   -1.2341 H   0  0  0  0  0
    9.2380   31.1153   -0.2588 H   0  0  0  0  0
   10.8465   31.8354    0.1582 H   0  0  0  0  0
  1  2  2  0  0  0
  1  3  1  0  0  0
  1  4  1  0  0  0
  3  5  1  0  0  0
  3  6  1  0  0  0
  3  7  1  0  0  0
  4  8  1  0  0  0
  4  9  1  0  0  0
  4 10  1  0  0  0
M  END
$$$$
