@<TRIPOS>MOLECULE
DMS_1_A_402
 10 9 0 0 0
SMALL
NO_CHARGES

@<TRIPOS>ATOM
      1 S           9.1640    0.2050    1.8260 S.o    402  DMS402      0.0000
      2 O           8.5470    1.5350    1.9820 O.2    402  DMS402      0.0000
      3 C1         10.4640    0.5720    0.7420 C.3    402  DMS402      0.0000
      4 C2          8.1970   -0.6580    0.6380 C.3    402  DMS402      0.0000
      5 H          10.9439   -0.3642    0.3901 H      402  DMS402      0.0000
      6 H          11.2286    1.1751    1.2736 H      402  DMS402      0.0000
      7 H          10.1053    1.1497   -0.1348 H      402  DMS402      0.0000
      8 H           8.7318   -1.5693    0.3003 H      402  DMS402      0.0000
      9 H           7.9766   -0.0132   -0.2374 H      402  DMS402      0.0000
     10 H           7.2376   -0.9649    1.1027 H      402  DMS402      0.0000
@<TRIPOS>BOND
     1     1     2    2
     2     1     3    1
     3     1     4    1
     4     3     5    1
     5     3     6    1
     6     3     7    1
     7     4     8    1
     8     4     9    1
     9     4    10    1

