DHF_1_A_428
  -ISIS-            3D

 49 51  0  0  0  0  0  0  0  0  1 V2000
   73.8990  -23.1820   43.5760 N   0  0  0  0  0
   75.1660  -22.8990   43.3450 C   0  0  0  0  0
   75.8840  -23.6940   42.5860 N   0  0  0  0  0
   75.7730  -21.8310   43.8550 N   0  0  0  0  0
   75.1520  -20.9530   44.6100 C   0  0  0  0  0
   75.7370  -19.9990   45.0310 O   0  0  0  0  0
   73.7510  -21.1890   44.8980 C   0  0  0  0  0
   73.0250  -20.3810   45.6380 N   0  0  0  0  0
   71.7560  -20.6830   45.8470 C   0  0  0  0  0
   71.2050  -21.8180   45.3020 C   0  0  0  0  0
   71.9020  -22.6300   44.5480 N   0  0  0  0  0
   73.1670  -22.3810   44.3100 C   0  0  0  0  0
   70.8680  -19.8200   46.6840 C   0  0  0  0  0
   71.4740  -18.5550   46.9690 N   0  0  0  0  0
   69.0410  -15.6860   48.6150 C   0  0  0  0  0
   70.3260  -15.3670   48.2170 C   0  0  0  0  0
   71.1520  -16.3260   47.6640 C   0  0  0  0  0
   70.7040  -17.6150   47.5050 C   0  0  0  0  0
   69.4270  -17.9510   47.8990 C   0  0  0  0  0
   68.6080  -16.9910   48.4520 C   0  0  0  0  0
   68.1380  -14.6590   49.2540 C   0  0  0  0  0
   68.5520  -13.5370   49.4760 O   0  0  0  0  0
   66.8990  -14.9540   49.6240 N   0  0  0  0  0
   65.8280  -14.0760   49.1750 C   0  0  0  0  0
   64.4600  -14.7710   49.1470 C   0  0  0  0  0
   63.6970  -14.5530   47.8420 C   0  0  0  0  0
   62.2110  -14.8670   47.9490 C   0  0  0  0  0
   61.4030  -13.9250   47.9220 O   0  0  0  0  0
   61.8120  -16.0460   48.0370 O   0  0  0  0  0
   65.7140  -12.7920   49.9480 C   0  0  0  0  0
   65.1060  -12.7930   51.0430 O   0  0  0  0  0
   66.2150  -11.7630   49.4550 O   0  0  0  0  0
   70.1475  -22.0739   45.4809 H   0  0  0  0  0
   70.6390  -20.3811   47.6205 H   0  0  0  0  0
   69.9244  -19.6943   46.1018 H   0  0  0  0  0
   72.4598  -18.3347   46.7717 H   0  0  0  0  0
   70.7027  -14.3381   48.3421 H   0  0  0  0  0
   72.1724  -16.0481   47.3512 H   0  0  0  0  0
   69.0046  -18.9626   47.8106 H   0  0  0  0  0
   67.5944  -17.2943   48.7595 H   0  0  0  0  0
   66.6844  -15.8800   50.0171 H   0  0  0  0  0
   66.0548  -13.7883   48.1178 H   0  0  0  0  0
   63.8280  -14.4492   50.0042 H   0  0  0  0  0
   64.5926  -15.8696   49.2814 H   0  0  0  0  0
   64.1508  -15.1681   47.0310 H   0  0  0  0  0
   63.8068  -13.4895   47.5258 H   0  0  0  0  0
   76.8721  -23.4814   42.4032 H   0  0  0  0  0
   75.3754  -24.5060   42.2165 H   0  0  0  0  0
   76.7651  -21.7184   43.6211 H   0  0  0  0  0
  1  2  1  0  0  0
  1 12  2  0  0  0
  2  3  1  0  0  0
  2  4  2  0  0  0
  3 47  1  0  0  0
  3 48  1  0  0  0
  4  5  1  0  0  0
  4 49  1  0  0  0
  5  6  2  0  0  0
  5  7  1  0  0  0
  7  8  1  0  0  0
  7 12  1  0  0  0
  8  9  2  0  0  0
  9 10  1  0  0  0
  9 13  1  0  0  0
 10 11  2  0  0  0
 10 33  1  0  0  0
 11 12  1  0  0  0
 13 14  1  0  0  0
 13 34  1  0  0  0
 13 35  1  0  0  0
 14 18  1  0  0  0
 14 36  1  0  0  0
 15 16  2  0  0  0
 15 20  1  0  0  0
 15 21  1  0  0  0
 16 17  1  0  0  0
 16 37  1  0  0  0
 17 18  2  0  0  0
 17 38  1  0  0  0
 18 19  1  0  0  0
 19 20  2  0  0  0
 19 39  1  0  0  0
 20 40  1  0  0  0
 21 22  2  0  0  0
 21 23  1  0  0  0
 23 24  1  0  0  0
 23 41  1  0  0  0
 24 25  1  0  0  0
 24 30  1  0  0  0
 24 42  1  0  0  0
 25 26  1  0  0  0
 25 43  1  0  0  0
 25 44  1  0  0  0
 26 27  1  0  0  0
 26 45  1  0  0  0
 26 46  1  0  0  0
 27 28  2  0  0  0
 27 29  2  0  0  0
 30 31  2  0  0  0
 30 32  2  0  0  0
M  END
$$$$
