@<TRIPOS>MOLECULE
HBA_1_A_410
 15 15 0 0 0
SMALL
NO_CHARGES

@<TRIPOS>ATOM
      1 C1'        41.4210    9.1030   32.1560 C.2    410  HBA410      0.0000
      2 O1'        41.1580    8.1100   32.7670 O.2    410  HBA410      0.0000
      3 C1         42.3450   10.1780   32.7610 C.ar   410  HBA410      0.0000
      4 C2         42.6260   11.3410   32.0550 C.ar   410  HBA410      0.0000
      5 C3         43.4620   12.3090   32.5960 C.ar   410  HBA410      0.0000
      6 C4         44.0090   12.1070   33.8610 C.ar   410  HBA410      0.0000
      7 C5         43.7430   10.9410   34.5610 C.ar   410  HBA410      0.0000
      8 C6         42.9030    9.9780   34.0200 C.ar   410  HBA410      0.0000
      9 O4         44.8580   13.0810   34.4140 O.3    410  HBA410      0.0000
     10 H          40.9977    9.2836   31.1396 H      410  HBA410      0.0000
     11 H          42.1875   11.5030   31.0558 H      410  HBA410      0.0000
     12 H          43.6796   13.2249   32.0210 H      410  HBA410      0.0000
     13 H          44.1964   10.7835   35.5537 H      410  HBA410      0.0000
     14 H          42.6881    9.0589   34.5899 H      410  HBA410      0.0000
     15 H          44.9723   13.8300   33.8467 H      410  HBA410      0.0000
@<TRIPOS>BOND
     1     1     2    2
     2     1     3    1
     3     1    10    1
     4     3     4   ar
     5     3     8   ar
     6     4     5   ar
     7     4    11    1
     8     5     6   ar
     9     5    12    1
    10     6     7   ar
    11     6     9    1
    12     7     8   ar
    13     7    13    1
    14     8    14    1
    15     9    15    1

