HBA_1_A_410
  -ISIS-            3D

 15 15  0  0  0  0  0  0  0  0  1 V2000
   41.4210    9.1030   32.1560 C   0  0  0  0  0
   41.1580    8.1100   32.7670 O   0  0  0  0  0
   42.3450   10.1780   32.7610 C   0  0  0  0  0
   42.6260   11.3410   32.0550 C   0  0  0  0  0
   43.4620   12.3090   32.5960 C   0  0  0  0  0
   44.0090   12.1070   33.8610 C   0  0  0  0  0
   43.7430   10.9410   34.5610 C   0  0  0  0  0
   42.9030    9.9780   34.0200 C   0  0  0  0  0
   44.8580   13.0810   34.4140 O   0  0  0  0  0
   40.9977    9.2836   31.1396 H   0  0  0  0  0
   42.1875   11.5030   31.0558 H   0  0  0  0  0
   43.6796   13.2249   32.0210 H   0  0  0  0  0
   44.1964   10.7835   35.5537 H   0  0  0  0  0
   42.6881    9.0589   34.5899 H   0  0  0  0  0
   44.9723   13.8300   33.8467 H   0  0  0  0  0
  1  2  2  0  0  0
  1  3  1  0  0  0
  1 10  1  0  0  0
  3  4  2  0  0  0
  3  8  1  0  0  0
  4  5  1  0  0  0
  4 11  1  0  0  0
  5  6  2  0  0  0
  5 12  1  0  0  0
  6  7  1  0  0  0
  6  9  1  0  0  0
  7  8  2  0  0  0
  7 13  1  0  0  0
  8 14  1  0  0  0
  9 15  1  0  0  0
M  END
$$$$
