@<TRIPOS>MOLECULE
APR_1_A_201
 58 61 0 0 0
SMALL
NO_CHARGES

@<TRIPOS>ATOM
      1 N1         39.1890   74.3590    5.5700 N.ar   201  APR201      0.0000
      2 C2         38.4960   73.3050    5.1120 C.ar   201  APR201      0.0000
      3 N3         38.9430   72.1710    4.5720 N.ar   201  APR201      0.0000
      4 C4         40.2840   72.1640    4.5340 C.ar   201  APR201      0.0000
      5 C5         41.1310   73.1600    4.9590 C.ar   201  APR201      0.0000
      6 C6         40.5440   74.3250    5.4880 C.ar   201  APR201      0.0000
      7 N6         41.2410   75.3580    5.9460 N.pl3  201  APR201      0.0000
      8 N7         42.4540   72.7760    4.7690 N.ar   201  APR201      0.0000
      9 C8         42.3750   71.5590    4.2640 C.ar   201  APR201      0.0000
     10 N9         41.0750   71.1600    4.0720 N.ar   201  APR201      0.0000
     11 C1'        40.5960   69.8970    3.5960 C.3    201  APR201      0.0000
     12 C2'        41.6090   69.0690    2.8170 C.3    201  APR201      0.0000
     13 O2'        41.6520   69.4270    1.4540 O.3    201  APR201      0.0000
     14 C3'        41.0360   67.6680    3.0210 C.3    201  APR201      0.0000
     15 O3'        39.9550   67.3940    2.1320 O.3    201  APR201      0.0000
     16 O4'        40.2480   69.1250    4.7220 O.3    201  APR201      0.0000
     17 C4'        40.5450   67.7270    4.4770 C.3    201  APR201      0.0000
     18 C5'        41.5100   67.2300    5.5280 C.3    201  APR201      0.0000
     19 O5'        42.8750   67.4740    5.0970 O.3    201  APR201      0.0000
     20 PA         44.0310   67.6190    6.2000 P.3    201  APR201      0.0000
     21 O1A        45.3610   67.5020    5.5290 O.co2  201  APR201      0.0000
     22 O2A        43.7560   68.8060    7.0600 O.co2  201  APR201      0.0000
     23 O3A        43.7710   66.3230    7.0730 O.3    201  APR201      0.0000
     24 PB         44.4030   64.8590    7.1000 P.3    201  APR201      0.0000
     25 O1B        43.7020   64.0960    8.1700 O.co2  201  APR201      0.0000
     26 O2B        44.4240   64.2970    5.7070 O.co2  201  APR201      0.0000
     27 O5D        45.9010   65.1780    7.5500 O.3    201  APR201      0.0000
     28 C5D        46.2410   65.2760    8.9490 C.3    201  APR201      0.0000
     29 O4D        47.8500   66.9880    8.3750 O.3    201  APR201      0.0000
     30 O1D        47.3960   69.1020    9.1320 O.3    201  APR201      0.0000
     31 C1D        48.1890   68.0130    9.3140 C.3    201  APR201      0.0000
     32 O2D        48.6510   68.0010   11.7520 O.3    201  APR201      0.0000
     33 C2D        47.9010   67.4220   10.7000 C.3    201  APR201      0.0000
     34 O3D        49.5820   65.6360   10.5650 O.3    201  APR201      0.0000
     35 C3D        48.1980   65.9460   10.4970 C.3    201  APR201      0.0000
     36 C4D        47.6820   65.7200    9.0710 C.3    201  APR201      0.0000
     37 H          37.3986   73.3899    5.1934 H      201  APR201      0.0000
     38 H          43.2270   70.9181    4.0102 H      201  APR201      0.0000
     39 H          39.6903   70.0531    2.9704 H      201  APR201      0.0000
     40 H          42.6186   69.1209    3.2692 H      201  APR201      0.0000
     41 H          42.5245   69.2667    1.1204 H      201  APR201      0.0000
     42 H          41.8160   66.8906    2.8848 H      201  APR201      0.0000
     43 H          40.1529   67.8294    1.3107 H      201  APR201      0.0000
     44 H          39.6010   67.1482    4.5719 H      201  APR201      0.0000
     45 H          41.3776   66.1357    5.6653 H      201  APR201      0.0000
     46 H          41.2971   67.7111    6.5053 H      201  APR201      0.0000
     47 H          46.1047   64.2897    9.4402 H      201  APR201      0.0000
     48 H          45.5688   66.0024    9.4516 H      201  APR201      0.0000
     49 H          47.5089   69.4177    8.2457 H      201  APR201      0.0000
     50 H          49.2615   68.2738    9.2148 H      201  APR201      0.0000
     51 H          48.4036   68.9149   11.8060 H      201  APR201      0.0000
     52 H          46.8178   67.5294   10.9271 H      201  APR201      0.0000
     53 H          49.9361   66.1471   11.2838 H      201  APR201      0.0000
     54 H          47.6451   65.3211   11.2289 H      201  APR201      0.0000
     55 H          48.3167   64.9546    8.5739 H      201  APR201      0.0000
     56 H          42.2643   75.2796    5.8740 H      201  APR201      0.0000
     57 H          40.6906   76.1365    6.3291 H      201  APR201      0.0000
     58 H          46.1487   67.2019    6.2892 H      201  APR201      0.0000
@<TRIPOS>BOND
     1     1     2   ar
     2     1     6   ar
     3     2     3   ar
     4     2    37    1
     5     3     4   ar
     6     4     5   ar
     7     4    10   ar
     8     5     6   ar
     9     5     8   ar
    10     6     7    1
    11     7    56    1
    12     7    57    1
    13     8     9   ar
    14     9    10   ar
    15     9    38    1
    16    10    11    1
    17    11    12    1
    18    11    16    1
    19    11    39    1
    20    12    13    1
    21    12    14    1
    22    12    40    1
    23    13    41    1
    24    14    15    1
    25    14    17    1
    26    14    42    1
    27    15    43    1
    28    16    17    1
    29    17    18    1
    30    17    44    1
    31    18    19    1
    32    18    45    1
    33    18    46    1
    34    19    20    1
    35    20    21    1
    36    20    22    2
    37    20    23    1
    38    23    24    1
    39    24    25    2
    40    24    26    2
    41    24    27    1
    42    27    28    1
    43    28    36    1
    44    28    47    1
    45    28    48    1
    46    29    31    1
    47    29    36    1
    48    30    31    1
    49    30    49    1
    50    31    33    1
    51    31    50    1
    52    32    33    1
    53    32    51    1
    54    33    35    1
    55    33    52    1
    56    34    35    1
    57    34    53    1
    58    35    36    1
    59    35    54    1
    60    36    55    1
    61    21    58    1

