@<TRIPOS>MOLECULE
EDO_1_A_206
 10 9 0 0 0
SMALL
NO_CHARGES

@<TRIPOS>ATOM
      1 C1         22.8650   59.1680   19.1710 C.3    206  EDO206      0.0000
      2 O1         23.1550   58.1090   18.2760 O.3    206  EDO206      0.0000
      3 C2         22.1890   60.2880   18.5160 C.3    206  EDO206      0.0000
      4 O2         21.1360   59.8600   17.6890 O.3    206  EDO206      0.0000
      5 H          23.8148   59.5108   19.6324 H      206  EDO206      0.0000
      6 H          22.2424   58.7788   20.0058 H      206  EDO206      0.0000
      7 H          22.4159   57.5140   18.2751 H      206  EDO206      0.0000
      8 H          22.9117   60.8678   17.9021 H      206  EDO206      0.0000
      9 H          21.7867   60.9956   19.2706 H      206  EDO206      0.0000
     10 H          21.5213   59.3439   16.9913 H      206  EDO206      0.0000
@<TRIPOS>BOND
     1     1     2    1
     2     1     3    1
     3     1     5    1
     4     1     6    1
     5     2     7    1
     6     3     4    1
     7     3     8    1
     8     3     9    1
     9     4    10    1

