EDO_1_A_206
  -ISIS-            3D

 10  9  0  0  0  0  0  0  0  0  1 V2000
   22.8650   59.1680   19.1710 C   0  0  0  0  0
   23.1550   58.1090   18.2760 O   0  0  0  0  0
   22.1890   60.2880   18.5160 C   0  0  0  0  0
   21.1360   59.8600   17.6890 O   0  0  0  0  0
   23.8148   59.5108   19.6324 H   0  0  0  0  0
   22.2424   58.7788   20.0058 H   0  0  0  0  0
   22.4159   57.5140   18.2751 H   0  0  0  0  0
   22.9117   60.8678   17.9021 H   0  0  0  0  0
   21.7867   60.9956   19.2706 H   0  0  0  0  0
   21.5213   59.3439   16.9913 H   0  0  0  0  0
  1  2  1  0  0  0
  1  3  1  0  0  0
  1  5  1  0  0  0
  1  6  1  0  0  0
  2  7  1  0  0  0
  3  4  1  0  0  0
  3  8  1  0  0  0
  3  9  1  0  0  0
  4 10  1  0  0  0
M  END
$$$$
