@<TRIPOS>MOLECULE
EDO_1_A_202
 10 9 0 0 0
SMALL
NO_CHARGES

@<TRIPOS>ATOM
      1 C1         20.8350   75.2920    6.4520 C.3    202  EDO202      0.0000
      2 O1         20.9850   74.5680    7.6380 O.3    202  EDO202      0.0000
      3 C2         21.9630   76.1830    6.2240 C.3    202  EDO202      0.0000
      4 O2         23.1680   75.6060    6.6220 O.3    202  EDO202      0.0000
      5 H          19.8818   75.8621    6.4741 H      202  EDO202      0.0000
      6 H          20.7538   74.5717    5.6088 H      202  EDO202      0.0000
      7 H          20.2416   73.9882    7.7364 H      202  EDO202      0.0000
      8 H          21.8246   77.1242    6.7985 H      202  EDO202      0.0000
      9 H          22.0325   76.4787    5.1567 H      202  EDO202      0.0000
     10 H          23.0034   75.1478    7.4385 H      202  EDO202      0.0000
@<TRIPOS>BOND
     1     1     2    1
     2     1     3    1
     3     1     5    1
     4     1     6    1
     5     2     7    1
     6     3     4    1
     7     3     8    1
     8     3     9    1
     9     4    10    1

