EDO_1_A_204
  -ISIS-            3D

 10  9  0  0  0  0  0  0  0  0  1 V2000
   40.6080   53.8870    0.7130 C   0  0  0  0  0
   39.8370   53.6640   -0.4440 O   0  0  0  0  0
   41.5790   54.9800    0.5580 C   0  0  0  0  0
   40.9720   56.2010    0.2310 O   0  0  0  0  0
   41.1332   52.9429    0.9686 H   0  0  0  0  0
   39.9236   54.0980    1.5622 H   0  0  0  0  0
   39.6048   54.5184   -0.7892 H   0  0  0  0  0
   42.3016   54.7271   -0.2464 H   0  0  0  0  0
   42.1822   55.1007    1.4836 H   0  0  0  0  0
   40.6436   56.6033    1.0245 H   0  0  0  0  0
  1  2  1  0  0  0
  1  3  1  0  0  0
  1  5  1  0  0  0
  1  6  1  0  0  0
  2  7  1  0  0  0
  3  4  1  0  0  0
  3  8  1  0  0  0
  3  9  1  0  0  0
  4 10  1  0  0  0
M  END
$$$$
