EDO_1_A_203
  -ISIS-            3D

 10  9  0  0  0  0  0  0  0  0  1 V2000
   27.2610   75.7310   -1.3560 C   0  0  0  0  0
   26.7260   75.1940   -0.1700 O   0  0  0  0  0
   28.7360   75.7990   -1.3350 C   0  0  0  0  0
   29.2320   76.5060   -0.2230 O   0  0  0  0  0
   26.8429   76.7494   -1.5096 H   0  0  0  0  0
   26.9240   75.1173   -2.2190 H   0  0  0  0  0
   25.7811   75.1782   -0.2445 H   0  0  0  0  0
   29.1138   76.2841   -2.2593 H   0  0  0  0  0
   29.1644   74.7739   -1.3243 H   0  0  0  0  0
   28.7605   76.1799    0.5350 H   0  0  0  0  0
  1  2  1  0  0  0
  1  3  1  0  0  0
  1  5  1  0  0  0
  1  6  1  0  0  0
  2  7  1  0  0  0
  3  4  1  0  0  0
  3  8  1  0  0  0
  3  9  1  0  0  0
  4 10  1  0  0  0
M  END
$$$$
