@<TRIPOS>MOLECULE
DMS_2_A_405
 10 9 0 0 0
SMALL
NO_CHARGES

@<TRIPOS>ATOM
      1 S          -4.9760   19.5120   -7.5330 S.o    405  DMS405      0.0000
      2 O          -4.2860   18.9540   -6.3380 O.2    405  DMS405      0.0000
      3 C1         -6.5080   18.5820   -7.8130 C.3    405  DMS405      0.0000
      4 C2         -4.0280   19.0320   -9.0030 C.3    405  DMS405      0.0000
      5 H          -6.9858   18.9287   -8.7520 H      405  DMS405      0.0000
      6 H          -7.2012   18.7554   -6.9647 H      405  DMS405      0.0000
      7 H          -6.2825   17.4985   -7.8880 H      405  DMS405      0.0000
      8 H          -4.5643   19.3651   -9.9150 H      405  DMS405      0.0000
      9 H          -3.9021   17.9301   -9.0269 H      405  DMS405      0.0000
     10 H          -3.0303   19.5155   -8.9689 H      405  DMS405      0.0000
@<TRIPOS>BOND
     1     1     2    2
     2     1     3    1
     3     1     4    1
     4     3     5    1
     5     3     6    1
     6     3     7    1
     7     4     8    1
     8     4     9    1
     9     4    10    1

