DMS_1_A_404
  -ISIS-            3D

 10  9  0  0  0  0  0  0  0  0  1 V2000
   -9.1300    1.5930    0.5410 S   0  0  0  0  0
   -9.1090    0.3420   -0.2760 O   0  0  0  0  0
   -8.3470    2.9350   -0.4080 C   0  0  0  0  0
   -8.0730    1.3930    2.0190 C   0  0  0  0  0
   -8.3329    3.8591    0.2051 H   0  0  0  0  0
   -8.9292    3.1164   -1.3345 H   0  0  0  0  0
   -7.3088    2.6476   -0.6726 H   0  0  0  0  0
   -8.0662    2.3400    2.5964 H   0  0  0  0  0
   -7.0396    1.1395    1.7054 H   0  0  0  0  0
   -8.4798    0.5778    2.6515 H   0  0  0  0  0
  1  2  2  0  0  0
  1  3  1  0  0  0
  1  4  1  0  0  0
  3  5  1  0  0  0
  3  6  1  0  0  0
  3  7  1  0  0  0
  4  8  1  0  0  0
  4  9  1  0  0  0
  4 10  1  0  0  0
M  END
$$$$
