DMS_2_A_402
  -ISIS-            3D

 10  9  0  0  0  0  0  0  0  0  1 V2000
    2.3930    4.8230  -32.1080 S   0  0  0  0  0
    2.1290    5.7990  -31.0000 O   0  0  0  0  0
    0.8120    4.4280  -32.8940 C   0  0  0  0  0
    2.7920    3.2040  -31.3900 C   0  0  0  0  0
    0.9653    3.6443  -33.6638 H   0  0  0  0  0
    0.4061    5.3397  -33.3781 H   0  0  0  0  0
    0.0916    4.0655  -32.1323 H   0  0  0  0  0
    2.8972    2.4543  -32.2006 H   0  0  0  0  0
    1.9861    2.8910  -30.6950 H   0  0  0  0  0
    3.7488    3.2771  -30.8338 H   0  0  0  0  0
  1  2  2  0  0  0
  1  3  1  0  0  0
  1  4  1  0  0  0
  3  5  1  0  0  0
  3  6  1  0  0  0
  3  7  1  0  0  0
  4  8  1  0  0  0
  4  9  1  0  0  0
  4 10  1  0  0  0
M  END
$$$$
