@<TRIPOS>MOLECULE
DMS_2_A_404
 10 9 0 0 0
SMALL
NO_CHARGES

@<TRIPOS>ATOM
      1 S           9.1300    1.5930   -0.5410 S.o    404  DMS404      0.0000
      2 O           9.1090    0.3420    0.2760 O.2    404  DMS404      0.0000
      3 C1          8.3470    2.9350    0.4080 C.3    404  DMS404      0.0000
      4 C2          8.0730    1.3930   -2.0190 C.3    404  DMS404      0.0000
      5 H           8.3329    3.8591   -0.2051 H      404  DMS404      0.0000
      6 H           8.9292    3.1164    1.3345 H      404  DMS404      0.0000
      7 H           7.3088    2.6476    0.6726 H      404  DMS404      0.0000
      8 H           8.0662    2.3400   -2.5964 H      404  DMS404      0.0000
      9 H           7.0396    1.1395   -1.7054 H      404  DMS404      0.0000
     10 H           8.4798    0.5778   -2.6515 H      404  DMS404      0.0000
@<TRIPOS>BOND
     1     1     2    2
     2     1     3    1
     3     1     4    1
     4     3     5    1
     5     3     6    1
     6     3     7    1
     7     4     8    1
     8     4     9    1
     9     4    10    1

