@<TRIPOS>MOLECULE
DMS_2_A_403
 10 9 0 0 0
SMALL
NO_CHARGES

@<TRIPOS>ATOM
      1 S          10.0880   16.0420  -18.7000 S.o    403  DMS403      0.0000
      2 O          11.1060   17.0390  -18.2380 O.2    403  DMS403      0.0000
      3 C1         10.3690   15.6290  -20.4480 C.3    403  DMS403      0.0000
      4 C2          8.4740   16.8640  -18.8210 C.3    403  DMS403      0.0000
      5 H           9.5688   14.9468  -20.8010 H      403  DMS403      0.0000
      6 H          11.3515   15.1245  -20.5504 H      403  DMS403      0.0000
      7 H          10.3656   16.5554  -21.0582 H      403  DMS403      0.0000
      8 H           7.7240   16.1514  -19.2208 H      403  DMS403      0.0000
      9 H           8.5489   17.7428  -19.4938 H      403  DMS403      0.0000
     10 H           8.1580   17.1992  -17.8120 H      403  DMS403      0.0000
@<TRIPOS>BOND
     1     1     2    2
     2     1     3    1
     3     1     4    1
     4     3     5    1
     5     3     6    1
     6     3     7    1
     7     4     8    1
     8     4     9    1
     9     4    10    1

