DMS_1_A_403
  -ISIS-            3D

 10  9  0  0  0  0  0  0  0  0  1 V2000
    2.4850  -18.8520    8.1440 S   0  0  0  0  0
    3.7760  -18.6410    8.9080 O   0  0  0  0  0
    1.1920  -18.1130    9.1130 C   0  0  0  0  0
    2.0430  -20.5430    8.4480 C   0  0  0  0  0
    0.2029  -18.3766    8.6858 H   0  0  0  0  0
    1.3065  -17.0099    9.0951 H   0  0  0  0  0
    1.2469  -18.4637   10.1641 H   0  0  0  0  0
    1.0296  -20.7462    8.0456 H   0  0  0  0  0
    2.0587  -20.7588    9.5362 H   0  0  0  0  0
    2.7692  -21.2088    7.9385 H   0  0  0  0  0
  1  2  2  0  0  0
  1  3  1  0  0  0
  1  4  1  0  0  0
  3  5  1  0  0  0
  3  6  1  0  0  0
  3  7  1  0  0  0
  4  8  1  0  0  0
  4  9  1  0  0  0
  4 10  1  0  0  0
M  END
$$$$
