DMS_2_A_401
  -ISIS-            3D

 10  9  0  0  0  0  0  0  0  0  1 V2000
   -7.1900  -28.0200  -21.3710 S   0  0  0  0  0
   -7.9090  -27.0590  -22.2470 O   0  0  0  0  0
   -5.9490  -28.7880  -22.3940 C   0  0  0  0  0
   -6.0960  -27.0310  -20.3760 C   0  0  0  0  0
   -5.2736  -29.4047  -21.7664 H   0  0  0  0  0
   -5.3565  -28.0167  -22.9276 H   0  0  0  0  0
   -6.4438  -29.4437  -23.1392 H   0  0  0  0  0
   -5.4150  -27.6890  -19.7986 H   0  0  0  0  0
   -6.6945  -26.4243  -19.6661 H   0  0  0  0  0
   -5.4977  -26.3516  -21.0172 H   0  0  0  0  0
  1  2  2  0  0  0
  1  3  1  0  0  0
  1  4  1  0  0  0
  3  5  1  0  0  0
  3  6  1  0  0  0
  3  7  1  0  0  0
  4  8  1  0  0  0
  4  9  1  0  0  0
  4 10  1  0  0  0
M  END
$$$$
