@<TRIPOS>MOLECULE
DMS_2_A_402
 10 9 0 0 0
SMALL
NO_CHARGES

@<TRIPOS>ATOM
      1 S          -5.9880   -1.1000    6.3930 S.o    402  DMS402      0.0000
      2 O          -7.0490   -0.9470    7.4250 O.2    402  DMS402      0.0000
      3 C1         -6.8300   -0.9500    4.8280 C.3    402  DMS402      0.0000
      4 C2         -5.6480   -2.8220    6.2860 C.3    402  DMS402      0.0000
      5 H          -6.1349   -1.2007    4.0008 H      402  DMS402      0.0000
      6 H          -7.1773    0.0955    4.6983 H      402  DMS402      0.0000
      7 H          -7.7074   -1.6282    4.7929 H      402  DMS402      0.0000
      8 H          -4.9806   -3.0232    5.4233 H      402  DMS402      0.0000
      9 H          -6.5883   -3.3988    6.1669 H      402  DMS402      0.0000
     10 H          -5.1391   -3.1543    7.2138 H      402  DMS402      0.0000
@<TRIPOS>BOND
     1     1     2    2
     2     1     3    1
     3     1     4    1
     4     3     5    1
     5     3     6    1
     6     3     7    1
     7     4     8    1
     8     4     9    1
     9     4    10    1

