DMS_1_A_501
  -ISIS-            3D

 10  9  0  0  0  0  0  0  0  0  1 V2000
    6.0740   -0.9450   -6.5740 S   0  0  0  0  0
    7.0110   -0.4910   -7.6470 O   0  0  0  0  0
    6.9570   -0.9820   -4.9910 C   0  0  0  0  0
    5.6800   -2.7080   -6.7740 C   0  0  0  0  0
    6.2821   -1.3653   -4.1988 H   0  0  0  0  0
    7.2805    0.0459   -4.7291 H   0  0  0  0  0
    7.8476   -1.6385   -5.0721 H   0  0  0  0  0
    5.0362   -3.0413   -5.9348 H   0  0  0  0  0
    6.6164   -3.3033   -6.7861 H   0  0  0  0  0
    5.1386   -2.8542   -7.7308 H   0  0  0  0  0
  1  2  2  0  0  0
  1  3  1  0  0  0
  1  4  1  0  0  0
  3  5  1  0  0  0
  3  6  1  0  0  0
  3  7  1  0  0  0
  4  8  1  0  0  0
  4  9  1  0  0  0
  4 10  1  0  0  0
M  END
$$$$
