DMS_1_A_502
  -ISIS-            3D

 10  9  0  0  0  0  0  0  0  0  1 V2000
   -4.2170   14.3220    0.1670 S   0  0  0  0  0
   -4.4690   15.1870   -0.9830 O   0  0  0  0  0
   -3.7910   15.4890    1.4190 C   0  0  0  0  0
   -5.8120   13.9650    0.8280 C   0  0  0  0  0
   -3.7485   14.9869    2.4073 H   0  0  0  0  0
   -4.5287   16.3168    1.4583 H   0  0  0  0  0
   -2.7903   15.9140    1.1979 H   0  0  0  0  0
   -5.7127   13.4978    1.8292 H   0  0  0  0  0
   -6.3337   13.2521    0.1569 H   0  0  0  0  0
   -6.4224   14.8878    0.9100 H   0  0  0  0  0
  1  2  2  0  0  0
  1  3  1  0  0  0
  1  4  1  0  0  0
  3  5  1  0  0  0
  3  6  1  0  0  0
  3  7  1  0  0  0
  4  8  1  0  0  0
  4  9  1  0  0  0
  4 10  1  0  0  0
M  END
$$$$
