DMS_1_A_406
  -ISIS-            3D

 10  9  0  0  0  0  0  0  0  0  1 V2000
  -24.1710    2.9660   31.7560 S   0  0  0  0  0
  -25.6530    2.7860   31.6470 O   0  0  0  0  0
  -23.5750    4.0360   30.4120 C   0  0  0  0  0
  -23.3230    1.4810   31.1600 C   0  0  0  0  0
  -22.4678    4.0956   30.4425 H   0  0  0  0  0
  -23.9953    5.0537   30.5467 H   0  0  0  0  0
  -23.9027    3.6349   29.4310 H   0  0  0  0  0
  -22.2266    1.6492   31.1583 H   0  0  0  0  0
  -23.6655    1.2304   30.1351 H   0  0  0  0  0
  -23.5566    0.6342   31.8373 H   0  0  0  0  0
  1  2  2  0  0  0
  1  3  1  0  0  0
  1  4  1  0  0  0
  3  5  1  0  0  0
  3  6  1  0  0  0
  3  7  1  0  0  0
  4  8  1  0  0  0
  4  9  1  0  0  0
  4 10  1  0  0  0
M  END
$$$$
