@<TRIPOS>MOLECULE
DMS_1_A_406
 10 9 0 0 0
SMALL
NO_CHARGES

@<TRIPOS>ATOM
      1 S         -24.1710    2.9660   31.7560 S.o    406  DMS406      0.0000
      2 O         -25.6530    2.7860   31.6470 O.2    406  DMS406      0.0000
      3 C1        -23.5750    4.0360   30.4120 C.3    406  DMS406      0.0000
      4 C2        -23.3230    1.4810   31.1600 C.3    406  DMS406      0.0000
      5 H         -22.4678    4.0956   30.4425 H      406  DMS406      0.0000
      6 H         -23.9953    5.0537   30.5467 H      406  DMS406      0.0000
      7 H         -23.9027    3.6349   29.4310 H      406  DMS406      0.0000
      8 H         -22.2266    1.6492   31.1583 H      406  DMS406      0.0000
      9 H         -23.6655    1.2304   30.1351 H      406  DMS406      0.0000
     10 H         -23.5566    0.6342   31.8373 H      406  DMS406      0.0000
@<TRIPOS>BOND
     1     1     2    2
     2     1     3    1
     3     1     4    1
     4     3     5    1
     5     3     6    1
     6     3     7    1
     7     4     8    1
     8     4     9    1
     9     4    10    1

