@<TRIPOS>MOLECULE
DMS_1_B_404
 10 9 0 0 0
SMALL
NO_CHARGES

@<TRIPOS>ATOM
      1 S          12.2500  -11.1420    7.6280 S.o    404  DMS404      0.0000
      2 O          12.7190   -9.8090    7.1140 O.2    404  DMS404      0.0000
      3 C1         13.2780  -11.6870    9.0110 C.3    404  DMS404      0.0000
      4 C2         12.6590  -12.4170    6.3940 C.3    404  DMS404      0.0000
      5 H          12.9638  -12.7017    9.3302 H      404  DMS404      0.0000
      6 H          13.1532  -10.9827    9.8587 H      404  DMS404      0.0000
      7 H          14.3437  -11.7063    8.7036 H      404  DMS404      0.0000
      8 H          12.3669  -13.4145    6.7813 H      404  DMS404      0.0000
      9 H          13.7484  -12.4019    6.1849 H      404  DMS404      0.0000
     10 H          12.1013  -12.2105    5.4577 H      404  DMS404      0.0000
@<TRIPOS>BOND
     1     1     2    2
     2     1     3    1
     3     1     4    1
     4     3     5    1
     5     3     6    1
     6     3     7    1
     7     4     8    1
     8     4     9    1
     9     4    10    1

