@<TRIPOS>MOLECULE
DMS_1_A_403
 10 9 0 0 0
SMALL
NO_CHARGES

@<TRIPOS>ATOM
      1 S         -19.0020    6.5550   35.3510 S.o    403  DMS403      0.0000
      2 O         -18.2390    6.4970   34.0620 O.2    403  DMS403      0.0000
      3 C1        -20.6550    7.2030   35.0340 C.3    403  DMS403      0.0000
      4 C2        -18.3460    7.9040   36.4030 C.3    403  DMS403      0.0000
      5 H         -21.2025    7.3113   35.9925 H      403  DMS403      0.0000
      6 H         -21.2053    6.4978   34.3782 H      403  DMS403      0.0000
      7 H         -20.5841    8.1900   34.5327 H      403  DMS403      0.0000
      8 H         -18.9606    7.9884   37.3225 H      403  DMS403      0.0000
      9 H         -18.3739    8.8621   35.8447 H      403  DMS403      0.0000
     10 H         -17.2983    7.6705   36.6823 H      403  DMS403      0.0000
@<TRIPOS>BOND
     1     1     2    2
     2     1     3    1
     3     1     4    1
     4     3     5    1
     5     3     6    1
     6     3     7    1
     7     4     8    1
     8     4     9    1
     9     4    10    1

