@<TRIPOS>MOLECULE
DMS_1_A_407
 10 9 0 0 0
SMALL
NO_CHARGES

@<TRIPOS>ATOM
      1 S         -23.1720   -2.6530   10.1030 S.o    407  DMS407      0.0000
      2 O         -23.2790   -4.1640    9.9850 O.2    407  DMS407      0.0000
      3 C1        -24.8460   -1.9170   10.1350 C.3    407  DMS407      0.0000
      4 C2        -22.5590   -1.9580    8.5460 C.3    407  DMS407      0.0000
      5 H         -24.7636   -0.8111   10.1578 H      407  DMS407      0.0000
      6 H         -25.3789   -2.2640   11.0438 H      407  DMS407      0.0000
      7 H         -25.4108   -2.2316    9.2336 H      407  DMS407      0.0000
      8 H         -22.5428   -0.8511    8.6143 H      407  DMS407      0.0000
      9 H         -23.2174   -2.2702    7.7096 H      407  DMS407      0.0000
     10 H         -21.5298   -2.3277    8.3610 H      407  DMS407      0.0000
@<TRIPOS>BOND
     1     1     2    2
     2     1     3    1
     3     1     4    1
     4     3     5    1
     5     3     6    1
     6     3     7    1
     7     4     8    1
     8     4     9    1
     9     4    10    1

