@<TRIPOS>MOLECULE
DMS_1_B_402
 10 9 0 0 0
SMALL
NO_CHARGES

@<TRIPOS>ATOM
      1 S          -2.9110    6.0870   25.2580 S.o    402  DMS402      0.0000
      2 O          -4.2420    6.7780   25.5040 O.2    402  DMS402      0.0000
      3 C1         -1.8780    6.1670   26.7480 C.3    402  DMS402      0.0000
      4 C2         -3.2000    4.2900   25.1900 C.3    402  DMS402      0.0000
      5 H          -0.9454    5.5891   26.5849 H      402  DMS402      0.0000
      6 H          -2.4312    5.7464   27.6126 H      402  DMS402      0.0000
      7 H          -1.6202    7.2254   26.9567 H      402  DMS402      0.0000
      8 H          -2.2308    3.7626   25.0767 H      402  DMS402      0.0000
      9 H          -3.8468    4.0573   24.3194 H      402  DMS402      0.0000
     10 H          -3.7013    3.9542   26.1208 H      402  DMS402      0.0000
@<TRIPOS>BOND
     1     1     2    2
     2     1     3    1
     3     1     4    1
     4     3     5    1
     5     3     6    1
     6     3     7    1
     7     4     8    1
     8     4     9    1
     9     4    10    1

