DMS_1_A_405
  -ISIS-            3D

 10  9  0  0  0  0  0  0  0  0  1 V2000
  -16.8320    5.5450   24.8680 S   0  0  0  0  0
  -16.4270    4.6020   25.9710 O   0  0  0  0  0
  -16.4840    7.2670   25.3300 C   0  0  0  0  0
  -18.6550    5.6000   24.7800 C   0  0  0  0  0
  -16.8533    7.9462   24.5348 H   0  0  0  0  0
  -15.3888    7.3994   25.4446 H   0  0  0  0  0
  -16.9860    7.5074   26.2896 H   0  0  0  0  0
  -18.9662    6.3296   24.0047 H   0  0  0  0  0
  -19.0693    5.9006   25.7642 H   0  0  0  0  0
  -19.0372    4.5941   24.5108 H   0  0  0  0  0
  1  2  2  0  0  0
  1  3  1  0  0  0
  1  4  1  0  0  0
  3  5  1  0  0  0
  3  6  1  0  0  0
  3  7  1  0  0  0
  4  8  1  0  0  0
  4  9  1  0  0  0
  4 10  1  0  0  0
M  END
$$$$
