@<TRIPOS>MOLECULE
DMS_1_A_402
 10 9 0 0 0
SMALL
NO_CHARGES

@<TRIPOS>ATOM
      1 S         -22.0070   -8.3050    9.0240 S.o    402  DMS402      0.0000
      2 O         -20.9900   -9.1960    9.6880 O.2    402  DMS402      0.0000
      3 C1        -22.7550   -9.1950    7.6250 C.3    402  DMS402      0.0000
      4 C2        -21.1330   -6.9880    8.1230 C.3    402  DMS402      0.0000
      5 H         -23.4456   -8.5181    7.0817 H      402  DMS402      0.0000
      6 H         -23.3241  -10.0660    8.0095 H      402  DMS402      0.0000
      7 H         -21.9607   -9.5494    6.9364 H      402  DMS402      0.0000
      8 H         -21.8667   -6.3707    7.5654 H      402  DMS402      0.0000
      9 H         -20.4061   -7.4352    7.4143 H      402  DMS402      0.0000
     10 H         -20.5924   -6.3467    8.8488 H      402  DMS402      0.0000
@<TRIPOS>BOND
     1     1     2    2
     2     1     3    1
     3     1     4    1
     4     3     5    1
     5     3     6    1
     6     3     7    1
     7     4     8    1
     8     4     9    1
     9     4    10    1

