@<TRIPOS>MOLECULE
DMS_1_B_407
 10 9 0 0 0
SMALL
NO_CHARGES

@<TRIPOS>ATOM
      1 S          16.8620  -11.2450   -0.1410 S.o    407  DMS407      0.0000
      2 O          17.0770  -11.7560   -1.5420 O.2    407  DMS407      0.0000
      3 C1         18.3360  -10.3110    0.3840 C.3    407  DMS407      0.0000
      4 C2         16.9950  -12.6290    1.0380 C.3    407  DMS407      0.0000
      5 H          18.2209   -9.9996    1.4423 H      407  DMS407      0.0000
      6 H          18.4412   -9.4088   -0.2526 H      407  DMS407      0.0000
      7 H          19.2410  -10.9435    0.2767 H      407  DMS407      0.0000
      8 H          16.9217  -12.2419    2.0749 H      407  DMS407      0.0000
      9 H          17.9651  -13.1491    0.9006 H      407  DMS407      0.0000
     10 H          16.1664  -13.3435    0.8555 H      407  DMS407      0.0000
@<TRIPOS>BOND
     1     1     2    2
     2     1     3    1
     3     1     4    1
     4     3     5    1
     5     3     6    1
     6     3     7    1
     7     4     8    1
     8     4     9    1
     9     4    10    1

