@<TRIPOS>MOLECULE
DMS_1_A_405
 10 9 0 0 0
SMALL
NO_CHARGES

@<TRIPOS>ATOM
      1 S         -16.8320    5.5450   24.8680 S.o    405  DMS405      0.0000
      2 O         -16.4270    4.6020   25.9710 O.2    405  DMS405      0.0000
      3 C1        -16.4840    7.2670   25.3300 C.3    405  DMS405      0.0000
      4 C2        -18.6550    5.6000   24.7800 C.3    405  DMS405      0.0000
      5 H         -16.8533    7.9462   24.5348 H      405  DMS405      0.0000
      6 H         -15.3888    7.3994   25.4446 H      405  DMS405      0.0000
      7 H         -16.9860    7.5074   26.2896 H      405  DMS405      0.0000
      8 H         -18.9662    6.3296   24.0047 H      405  DMS405      0.0000
      9 H         -19.0693    5.9006   25.7642 H      405  DMS405      0.0000
     10 H         -19.0372    4.5941   24.5108 H      405  DMS405      0.0000
@<TRIPOS>BOND
     1     1     2    2
     2     1     3    1
     3     1     4    1
     4     3     5    1
     5     3     6    1
     6     3     7    1
     7     4     8    1
     8     4     9    1
     9     4    10    1

