DMS_1_A_401
  -ISIS-            3D

 10  9  0  0  0  0  0  0  0  0  1 V2000
    4.4980  -12.9470   14.9510 S   0  0  0  0  0
    4.2980  -14.4280   14.7700 O   0  0  0  0  0
    3.5070  -12.3700   16.3620 C   0  0  0  0  0
    3.6020  -12.0660   13.6520 C   0  0  0  0  0
    3.5831  -11.2665   16.4444 H   0  0  0  0  0
    3.8963  -12.8319   17.2923 H   0  0  0  0  0
    2.4459  -12.6628   16.2245 H   0  0  0  0  0
    3.6731  -10.9727   13.8248 H   0  0  0  0  0
    2.5366  -12.3749   13.6489 H   0  0  0  0  0
    4.0550  -12.3079   12.6688 H   0  0  0  0  0
  1  2  2  0  0  0
  1  3  1  0  0  0
  1  4  1  0  0  0
  3  5  1  0  0  0
  3  6  1  0  0  0
  3  7  1  0  0  0
  4  8  1  0  0  0
  4  9  1  0  0  0
  4 10  1  0  0  0
M  END
$$$$
