DMS_1_A_407
  -ISIS-            3D

 10  9  0  0  0  0  0  0  0  0  1 V2000
  -23.1720   -2.6530   10.1030 S   0  0  0  0  0
  -23.2790   -4.1640    9.9850 O   0  0  0  0  0
  -24.8460   -1.9170   10.1350 C   0  0  0  0  0
  -22.5590   -1.9580    8.5460 C   0  0  0  0  0
  -24.7636   -0.8111   10.1578 H   0  0  0  0  0
  -25.3789   -2.2640   11.0438 H   0  0  0  0  0
  -25.4108   -2.2316    9.2336 H   0  0  0  0  0
  -22.5428   -0.8511    8.6143 H   0  0  0  0  0
  -23.2174   -2.2702    7.7096 H   0  0  0  0  0
  -21.5298   -2.3277    8.3610 H   0  0  0  0  0
  1  2  2  0  0  0
  1  3  1  0  0  0
  1  4  1  0  0  0
  3  5  1  0  0  0
  3  6  1  0  0  0
  3  7  1  0  0  0
  4  8  1  0  0  0
  4  9  1  0  0  0
  4 10  1  0  0  0
M  END
$$$$
