DMS_1_B_404
  -ISIS-            3D

 10  9  0  0  0  0  0  0  0  0  1 V2000
   12.2500  -11.1420    7.6280 S   0  0  0  0  0
   12.7190   -9.8090    7.1140 O   0  0  0  0  0
   13.2780  -11.6870    9.0110 C   0  0  0  0  0
   12.6590  -12.4170    6.3940 C   0  0  0  0  0
   12.9638  -12.7017    9.3302 H   0  0  0  0  0
   13.1532  -10.9827    9.8587 H   0  0  0  0  0
   14.3437  -11.7063    8.7036 H   0  0  0  0  0
   12.3669  -13.4145    6.7813 H   0  0  0  0  0
   13.7484  -12.4019    6.1849 H   0  0  0  0  0
   12.1013  -12.2105    5.4577 H   0  0  0  0  0
  1  2  2  0  0  0
  1  3  1  0  0  0
  1  4  1  0  0  0
  3  5  1  0  0  0
  3  6  1  0  0  0
  3  7  1  0  0  0
  4  8  1  0  0  0
  4  9  1  0  0  0
  4 10  1  0  0  0
M  END
$$$$
