@<TRIPOS>MOLECULE
EDO_1_A_406
 10 9 0 0 0
SMALL
NO_CHARGES

@<TRIPOS>ATOM
      1 C1         10.2830   -1.6740  -41.6840 C.3    406  EDO406      0.0000
      2 O1          9.9890   -3.0530  -41.9300 O.3    406  EDO406      0.0000
      3 C2         10.6410   -1.5410  -40.2100 C.3    406  EDO406      0.0000
      4 O2         10.1410   -0.3270  -39.6470 O.3    406  EDO406      0.0000
      5 H           9.3999   -1.0536  -41.9453 H      406  EDO406      0.0000
      6 H          11.1230   -1.3488  -42.3310 H      406  EDO406      0.0000
      7 H           9.0917   -3.2190  -41.6729 H      406  EDO406      0.0000
      8 H          11.7397   -1.6069  -40.0630 H      406  EDO406      0.0000
      9 H          10.2001   -2.3781  -39.6291 H      406  EDO406      0.0000
     10 H          10.7145    0.3820  -39.9078 H      406  EDO406      0.0000
@<TRIPOS>BOND
     1     1     2    1
     2     1     3    1
     3     1     5    1
     4     1     6    1
     5     2     7    1
     6     3     4    1
     7     3     8    1
     8     3     9    1
     9     4    10    1

