@<TRIPOS>MOLECULE
EDO_1_B_403
 10 9 0 0 0
SMALL
NO_CHARGES

@<TRIPOS>ATOM
      1 C1         -4.9600    2.4940   12.2410 C.3    403  EDO403      0.0000
      2 O1         -3.5830    2.8580   12.2310 O.3    403  EDO403      0.0000
      3 C2         -5.1370    1.1890   13.0080 C.3    403  EDO403      0.0000
      4 O2         -6.3650    0.5950   12.5560 O.3    403  EDO403      0.0000
      5 H          -5.3027    2.3715   11.1912 H      403  EDO403      0.0000
      6 H          -5.5671    3.3031   12.6987 H      403  EDO403      0.0000
      7 H          -3.4919    3.6586   11.7313 H      403  EDO403      0.0000
      8 H          -5.1704    1.3674   14.1029 H      403  EDO403      0.0000
      9 H          -4.2975    0.4934   12.7959 H      403  EDO403      0.0000
     10 H          -6.4712   -0.2345   13.0025 H      403  EDO403      0.0000
@<TRIPOS>BOND
     1     1     2    1
     2     1     3    1
     3     1     5    1
     4     1     6    1
     5     2     7    1
     6     3     4    1
     7     3     8    1
     8     3     9    1
     9     4    10    1

