@<TRIPOS>MOLECULE
EDO_1_A_407
 10 9 0 0 0
SMALL
NO_CHARGES

@<TRIPOS>ATOM
      1 C1         18.5940    4.9760  -24.6550 C.3    407  EDO407      0.0000
      2 O1         20.0140    4.8430  -24.5190 O.3    407  EDO407      0.0000
      3 C2         18.1480    4.0510  -25.7820 C.3    407  EDO407      0.0000
      4 O2         16.7280    3.8900  -25.7800 O.3    407  EDO407      0.0000
      5 H          18.3252    6.0299  -24.8767 H      407  EDO407      0.0000
      6 H          18.1045    4.6884  -23.7005 H      407  EDO407      0.0000
      7 H          20.2947    5.4008  -23.8057 H      407  EDO407      0.0000
      8 H          18.6196    3.0523  -25.6595 H      407  EDO407      0.0000
      9 H          18.4780    4.4541  -26.7629 H      407  EDO407      0.0000
     10 H          16.4960    3.3022  -26.4868 H      407  EDO407      0.0000
@<TRIPOS>BOND
     1     1     2    1
     2     1     3    1
     3     1     5    1
     4     1     6    1
     5     2     7    1
     6     3     4    1
     7     3     8    1
     8     3     9    1
     9     4    10    1

