EDO_1_B_401
  -ISIS-            3D

 10  9  0  0  0  0  0  0  0  0  1 V2000
    1.5110   -1.5180  -15.6160 C   0  0  0  0  0
    0.0870   -1.5600  -15.4800 O   0  0  0  0  0
    2.0630   -2.8840  -16.0150 C   0  0  0  0  0
    1.6100   -3.2300  -17.3250 O   0  0  0  0  0
    1.9475   -1.2005  -14.6461 H   0  0  0  0  0
    1.7910   -0.7471  -16.3642 H   0  0  0  0  0
   -0.2469   -1.9354  -16.2861 H   0  0  0  0  0
    1.7412   -3.6595  -15.2882 H   0  0  0  0  0
    3.1734   -2.8598  -16.0057 H   0  0  0  0  0
    1.9723   -4.0764  -17.5505 H   0  0  0  0  0
  1  2  1  0  0  0
  1  3  1  0  0  0
  1  5  1  0  0  0
  1  6  1  0  0  0
  2  7  1  0  0  0
  3  4  1  0  0  0
  3  8  1  0  0  0
  3  9  1  0  0  0
  4 10  1  0  0  0
M  END
$$$$
