EDO_1_A_407
  -ISIS-            3D

 10  9  0  0  0  0  0  0  0  0  1 V2000
   18.5940    4.9760  -24.6550 C   0  0  0  0  0
   20.0140    4.8430  -24.5190 O   0  0  0  0  0
   18.1480    4.0510  -25.7820 C   0  0  0  0  0
   16.7280    3.8900  -25.7800 O   0  0  0  0  0
   18.3252    6.0299  -24.8767 H   0  0  0  0  0
   18.1045    4.6884  -23.7005 H   0  0  0  0  0
   20.2947    5.4008  -23.8057 H   0  0  0  0  0
   18.6196    3.0523  -25.6595 H   0  0  0  0  0
   18.4780    4.4541  -26.7629 H   0  0  0  0  0
   16.4960    3.3022  -26.4868 H   0  0  0  0  0
  1  2  1  0  0  0
  1  3  1  0  0  0
  1  5  1  0  0  0
  1  6  1  0  0  0
  2  7  1  0  0  0
  3  4  1  0  0  0
  3  8  1  0  0  0
  3  9  1  0  0  0
  4 10  1  0  0  0
M  END
$$$$
