@<TRIPOS>MOLECULE
EDO_1_A_404
 10 9 0 0 0
SMALL
NO_CHARGES

@<TRIPOS>ATOM
      1 C1         11.7060  -14.3330   -7.8710 C.3    404  EDO404      0.0000
      2 O1         12.1850  -13.1120   -7.3100 O.3    404  EDO404      0.0000
      3 C2         10.1800  -14.3100   -7.7990 C.3    404  EDO404      0.0000
      4 O2          9.6770  -15.5810   -8.2170 O.3    404  EDO404      0.0000
      5 H          12.1264  -15.1974   -7.3148 H      404  EDO404      0.0000
      6 H          12.0482  -14.4115   -8.9234 H      404  EDO404      0.0000
      7 H          12.2551  -13.2137   -6.3699 H      404  EDO404      0.0000
      8 H           9.7711  -13.5223   -8.4650 H      404  EDO404      0.0000
      9 H           9.8285  -14.0887   -6.7689 H      404  EDO404      0.0000
     10 H           9.7066  -16.1780   -7.4807 H      404  EDO404      0.0000
@<TRIPOS>BOND
     1     1     2    1
     2     1     3    1
     3     1     5    1
     4     1     6    1
     5     2     7    1
     6     3     4    1
     7     3     8    1
     8     3     9    1
     9     4    10    1

