@<TRIPOS>MOLECULE
EDO_1_A_405
 10 9 0 0 0
SMALL
NO_CHARGES

@<TRIPOS>ATOM
      1 C1         25.4360   -9.1900  -36.8190 C.3    405  EDO405      0.0000
      2 O1         25.0700   -8.0940  -37.6690 O.3    405  EDO405      0.0000
      3 C2         24.5770  -10.3980  -37.1870 C.3    405  EDO405      0.0000
      4 O2         25.3710  -11.4210  -37.7990 O.3    405  EDO405      0.0000
      5 H          25.2873   -8.9058  -35.7556 H      405  EDO405      0.0000
      6 H          26.5163   -9.4053  -36.9477 H      405  EDO405      0.0000
      7 H          24.3398   -7.6356  -37.2739 H      405  EDO405      0.0000
      8 H          23.7368  -10.1216  -37.8577 H      405  EDO405      0.0000
      9 H          24.1188  -10.8234  -36.2698 H      405  EDO405      0.0000
     10 H          25.6334  -11.1095  -38.6554 H      405  EDO405      0.0000
@<TRIPOS>BOND
     1     1     2    1
     2     1     3    1
     3     1     5    1
     4     1     6    1
     5     2     7    1
     6     3     4    1
     7     3     8    1
     8     3     9    1
     9     4    10    1

