@<TRIPOS>MOLECULE
EDO_1_B_401
 10 9 0 0 0
SMALL
NO_CHARGES

@<TRIPOS>ATOM
      1 C1          1.5110   -1.5180  -15.6160 C.3    401  EDO401      0.0000
      2 O1          0.0870   -1.5600  -15.4800 O.3    401  EDO401      0.0000
      3 C2          2.0630   -2.8840  -16.0150 C.3    401  EDO401      0.0000
      4 O2          1.6100   -3.2300  -17.3250 O.3    401  EDO401      0.0000
      5 H           1.9475   -1.2005  -14.6461 H      401  EDO401      0.0000
      6 H           1.7910   -0.7471  -16.3642 H      401  EDO401      0.0000
      7 H          -0.2469   -1.9354  -16.2861 H      401  EDO401      0.0000
      8 H           1.7412   -3.6595  -15.2882 H      401  EDO401      0.0000
      9 H           3.1734   -2.8598  -16.0057 H      401  EDO401      0.0000
     10 H           1.9723   -4.0764  -17.5505 H      401  EDO401      0.0000
@<TRIPOS>BOND
     1     1     2    1
     2     1     3    1
     3     1     5    1
     4     1     6    1
     5     2     7    1
     6     3     4    1
     7     3     8    1
     8     3     9    1
     9     4    10    1

