EDO_1_A_403
  -ISIS-            3D

 10  9  0  0  0  0  0  0  0  0  1 V2000
   15.1530  -11.0200   -7.0020 C   0  0  0  0  0
   16.0770   -9.9220   -6.9940 O   0  0  0  0  0
   13.7220  -10.4950   -7.0780 C   0  0  0  0  0
   13.6170   -9.2290   -6.4090 O   0  0  0  0  0
   15.2950  -11.6067   -6.0699 H   0  0  0  0  0
   15.3807  -11.6946   -7.8523 H   0  0  0  0  0
   15.6795   -9.2285   -6.4802 H   0  0  0  0  0
   13.0134  -11.2235   -6.6310 H   0  0  0  0  0
   13.4309  -10.3612   -8.1419 H   0  0  0  0  0
   12.7255   -8.9202   -6.4990 H   0  0  0  0  0
  1  2  1  0  0  0
  1  3  1  0  0  0
  1  5  1  0  0  0
  1  6  1  0  0  0
  2  7  1  0  0  0
  3  4  1  0  0  0
  3  8  1  0  0  0
  3  9  1  0  0  0
  4 10  1  0  0  0
M  END
$$$$
