@<TRIPOS>MOLECULE
EDO_1_A_401
 10 9 0 0 0
SMALL
NO_CHARGES

@<TRIPOS>ATOM
      1 C1         22.4910   -9.1560   -8.4020 C.3    401  EDO401      0.0000
      2 O1         22.3530   -8.0310   -9.2810 O.3    401  EDO401      0.0000
      3 C2         21.6500  -10.2790   -8.9980 C.3    401  EDO401      0.0000
      4 O2         20.4000   -9.6970   -9.3960 O.3    401  EDO401      0.0000
      5 H          22.1317   -8.8810   -7.3883 H      401  EDO401      0.0000
      6 H          23.5584   -9.4449   -8.3212 H      401  EDO401      0.0000
      7 H          21.4240   -7.9123   -9.4408 H      401  EDO401      0.0000
      8 H          21.4831  -11.0889   -8.2578 H      401  EDO401      0.0000
      9 H          22.1556  -10.7180   -9.8840 H      401  EDO401      0.0000
     10 H          19.8726  -10.3770   -9.7930 H      401  EDO401      0.0000
@<TRIPOS>BOND
     1     1     2    1
     2     1     3    1
     3     1     5    1
     4     1     6    1
     5     2     7    1
     6     3     4    1
     7     3     8    1
     8     3     9    1
     9     4    10    1

