@<TRIPOS>MOLECULE
DMS_1_A_202
 10 9 0 0 0
SMALL
NO_CHARGES

@<TRIPOS>ATOM
      1 S         -44.4290  -35.4690   -2.0510 S.o    202  DMS202      0.0000
      2 O         -44.4380  -33.9810   -2.2580 O.2    202  DMS202      0.0000
      3 C1        -43.6590  -36.1260   -3.5020 C.3    202  DMS202      0.0000
      4 C2        -46.1080  -35.9760   -2.5030 C.3    202  DMS202      0.0000
      5 H         -43.7812  -37.2281   -3.5286 H      202  DMS202      0.0000
      6 H         -42.5756  -35.8893   -3.4798 H      202  DMS202      0.0000
      7 H         -44.1042  -35.6827   -4.4163 H      202  DMS202      0.0000
      8 H         -46.1626  -37.0824   -2.5608 H      202  DMS202      0.0000
      9 H         -46.3952  -35.5370   -3.4805 H      202  DMS202      0.0000
     10 H         -46.8153  -35.6220   -1.7252 H      202  DMS202      0.0000
@<TRIPOS>BOND
     1     1     2    2
     2     1     3    1
     3     1     4    1
     4     3     5    1
     5     3     6    1
     6     3     7    1
     7     4     8    1
     8     4     9    1
     9     4    10    1

