DMS_1_A_407
  -ISIS-            3D

 10  9  0  0  0  0  0  0  0  0  1 V2000
    7.0930  -21.1110   28.8350 S   0  0  0  0  0
    8.2380  -20.7990   29.7500 O   0  0  0  0  0
    6.9340  -22.9060   28.6480 C   0  0  0  0  0
    5.5170  -20.7360   29.6570 C   0  0  0  0  0
    6.0522  -23.1369   28.0161 H   0  0  0  0  0
    6.8131  -23.3790   29.6437 H   0  0  0  0  0
    7.8471  -23.3048   28.1603 H   0  0  0  0  0
    4.6752  -21.0265   28.9956 H   0  0  0  0  0
    5.4623  -19.6469   29.8615 H   0  0  0  0  0
    5.4497  -21.2935   30.6133 H   0  0  0  0  0
  1  2  2  0  0  0
  1  3  1  0  0  0
  1  4  1  0  0  0
  3  5  1  0  0  0
  3  6  1  0  0  0
  3  7  1  0  0  0
  4  8  1  0  0  0
  4  9  1  0  0  0
  4 10  1  0  0  0
M  END
$$$$
