@<TRIPOS>MOLECULE
DMS_1_A_406
 10 9 0 0 0
SMALL
NO_CHARGES

@<TRIPOS>ATOM
      1 S           2.3550  -18.8970    8.0930 S.o    406  DMS406      0.0000
      2 O           2.1850  -20.3620    7.8430 O.2    406  DMS406      0.0000
      3 C1          3.9280  -18.6150    8.9550 C.3    406  DMS406      0.0000
      4 C2          1.1960  -18.3730    9.3880 C.3    406  DMS406      0.0000
      5 H           4.0247  -17.5395    9.2083 H      406  DMS406      0.0000
      6 H           4.7662  -18.9108    8.2915 H      406  DMS406      0.0000
      7 H           3.9626  -19.2213    9.8833 H      406  DMS406      0.0000
      8 H           1.3679  -17.3042    9.6296 H      406  DMS406      0.0000
      9 H           1.3445  -18.9895   10.2982 H      406  DMS406      0.0000
     10 H           0.1568  -18.5022    9.0222 H      406  DMS406      0.0000
@<TRIPOS>BOND
     1     1     2    2
     2     1     3    1
     3     1     4    1
     4     3     5    1
     5     3     6    1
     6     3     7    1
     7     4     8    1
     8     4     9    1
     9     4    10    1

