@<TRIPOS>MOLECULE
DMS_1_A_403
 10 9 0 0 0
SMALL
NO_CHARGES

@<TRIPOS>ATOM
      1 S           6.2000   -1.0610   -6.2870 S.o    403  DMS403      0.0000
      2 O           7.0060   -0.6600   -7.4740 O.2    403  DMS403      0.0000
      3 C1          7.2210   -0.9290   -4.7890 C.3    403  DMS403      0.0000
      4 C2          5.8860   -2.8430   -6.3050 C.3    403  DMS403      0.0000
      5 H           6.6378   -1.2741   -3.9112 H      403  DMS403      0.0000
      6 H           7.5139    0.1302   -4.6394 H      403  DMS403      0.0000
      7 H           8.1330   -1.5508   -4.8993 H      403  DMS403      0.0000
      8 H           5.3374   -3.1329   -5.3858 H      403  DMS403      0.0000
      9 H           6.8474   -3.3947   -6.3553 H      403  DMS403      0.0000
     10 H           5.2705   -3.0965   -7.1924 H      403  DMS403      0.0000
@<TRIPOS>BOND
     1     1     2    2
     2     1     3    1
     3     1     4    1
     4     3     5    1
     5     3     6    1
     6     3     7    1
     7     4     8    1
     8     4     9    1
     9     4    10    1

