@<TRIPOS>MOLECULE
DMS_2_A_402
 10 9 0 0 0
SMALL
NO_CHARGES

@<TRIPOS>ATOM
      1 S          -6.9520  -28.1490  -21.5070 S.o    402  DMS402      0.0000
      2 O          -7.7810  -27.2280  -22.3250 O.2    402  DMS402      0.0000
      3 C1         -5.9490  -27.2110  -20.3600 C.3    402  DMS402      0.0000
      4 C2         -5.6390  -28.8390  -22.5640 C.3    402  DMS402      0.0000
      5 H          -5.2730  -27.8958  -19.8083 H      402  DMS402      0.0000
      6 H          -6.6092  -26.6921  -19.6353 H      402  DMS402      0.0000
      7 H          -5.3471  -26.4581  -20.9092 H      402  DMS402      0.0000
      8 H          -4.9684  -29.4776  -21.9534 H      402  DMS402      0.0000
      9 H          -5.0543  -28.0164  -23.0246 H      402  DMS402      0.0000
     10 H          -6.1006  -29.4541  -23.3633 H      402  DMS402      0.0000
@<TRIPOS>BOND
     1     1     2    2
     2     1     3    1
     3     1     4    1
     4     3     5    1
     5     3     6    1
     6     3     7    1
     7     4     8    1
     8     4     9    1
     9     4    10    1

