@<TRIPOS>MOLECULE
DMS_1_A_403
 10 9 0 0 0
SMALL
NO_CHARGES

@<TRIPOS>ATOM
      1 S           2.3540  -18.8370    8.0270 S.o    403  DMS403      0.0000
      2 O           3.6680  -18.7280    8.8400 O.2    403  DMS403      0.0000
      3 C1          1.1000  -18.0980    9.0440 C.3    403  DMS403      0.0000
      4 C2          1.8340  -20.5170    8.2720 C.3    403  DMS403      0.0000
      5 H           0.0977  -18.2986    8.6134 H      403  DMS403      0.0000
      6 H           1.2593  -17.0009    9.0807 H      403  DMS403      0.0000
      7 H           1.1476  -18.5024   10.0759 H      403  DMS403      0.0000
      8 H           0.8104  -20.6582    7.8687 H      403  DMS403      0.0000
      9 H           1.8453  -20.7749    9.3510 H      403  DMS403      0.0000
     10 H           2.5259  -21.1962    7.7331 H      403  DMS403      0.0000
@<TRIPOS>BOND
     1     1     2    2
     2     1     3    1
     3     1     4    1
     4     3     5    1
     5     3     6    1
     6     3     7    1
     7     4     8    1
     8     4     9    1
     9     4    10    1

