DMS_2_A_401
  -ISIS-            3D

 10  9  0  0  0  0  0  0  0  0  1 V2000
   -6.9740  -28.1130  -21.4320 S   0  0  0  0  0
   -7.7210  -27.1760  -22.3130 O   0  0  0  0  0
   -5.7100  -28.8160  -22.4730 C   0  0  0  0  0
   -5.9820  -27.1520  -20.3290 C   0  0  0  0  0
   -5.0338  -29.4499  -21.8636 H   0  0  0  0  0
   -5.1219  -28.0110  -22.9594 H   0  0  0  0  0
   -6.1842  -29.4437  -23.2549 H   0  0  0  0  0
   -5.3102  -27.8191  -19.7509 H   0  0  0  0  0
   -6.6403  -26.6053  -19.6232 H   0  0  0  0  0
   -5.3735  -26.4199  -20.8983 H   0  0  0  0  0
  1  2  2  0  0  0
  1  3  1  0  0  0
  1  4  1  0  0  0
  3  5  1  0  0  0
  3  6  1  0  0  0
  3  7  1  0  0  0
  4  8  1  0  0  0
  4  9  1  0  0  0
  4 10  1  0  0  0
M  END
$$$$
