@<TRIPOS>MOLECULE
DMS_1_A_402
 10 9 0 0 0
SMALL
NO_CHARGES

@<TRIPOS>ATOM
      1 S           6.1600   -0.9860   -6.3340 S.o    402  DMS402      0.0000
      2 O           7.1800   -0.8260   -7.3970 O.2    402  DMS402      0.0000
      3 C1          7.0320   -0.9480   -4.7640 C.3    402  DMS402      0.0000
      4 C2          5.7230   -2.6980   -6.2970 C.3    402  DMS402      0.0000
      5 H           6.3328   -1.1980   -3.9400 H      402  DMS402      0.0000
      6 H           7.4354    0.0716   -4.5959 H      402  DMS402      0.0000
      7 H           7.8717   -1.6729   -4.7722 H      402  DMS402      0.0000
      8 H           5.0617   -2.9003   -5.4298 H      402  DMS402      0.0000
      9 H           6.6323   -3.3292   -6.2234 H      402  DMS402      0.0000
     10 H           5.1791   -2.9579   -7.2282 H      402  DMS402      0.0000
@<TRIPOS>BOND
     1     1     2    2
     2     1     3    1
     3     1     4    1
     4     3     5    1
     5     3     6    1
     6     3     7    1
     7     4     8    1
     8     4     9    1
     9     4    10    1

