@<TRIPOS>MOLECULE
D3F_1_A_307
 39 40 0 0 0
SMALL
NO_CHARGES

@<TRIPOS>ATOM
      1 C1        -22.9720  -45.6860    4.9680 C.ar   307  D3F307      0.0000
      2 C2        -23.3970  -45.4080    3.6950 C.ar   307  D3F307      0.0000
      3 C3        -24.0820  -44.2520    3.4050 C.ar   307  D3F307      0.0000
      4 C4        -24.3950  -43.3220    4.3830 C.ar   307  D3F307      0.0000
      5 C5        -23.9920  -43.6380    5.6900 C.ar   307  D3F307      0.0000
      6 C6        -23.3000  -44.8010    5.9990 C.ar   307  D3F307      0.0000
      7 C7        -22.9010  -45.1640    7.4390 C.3    307  D3F307      0.0000
      8 S1        -25.2470  -41.8360    4.0400 S.o    307  D3F307      0.0000
      9 O1        -26.7040  -42.2010    3.8130 O.2    307  D3F307      0.0000
     10 O2        -24.7050  -41.4140    2.6720 O.2    307  D3F307      0.0000
     11 C8        -25.1290  -40.4510    5.1270 C.ar   307  D3F307      0.0000
     12 C9        -25.2910  -40.5770    6.5120 C.ar   307  D3F307      0.0000
     13 C10       -25.2840  -39.4700    7.3630 C.ar   307  D3F307      0.0000
     14 C11       -25.1020  -38.1880    6.8510 C.ar   307  D3F307      0.0000
     15 C12       -24.9200  -38.0480    5.4780 C.ar   307  D3F307      0.0000
     16 C13       -24.9290  -39.1560    4.6270 C.ar   307  D3F307      0.0000
     17 N1        -24.7270  -38.9480    3.3210 N.pl3  307  D3F307      0.0000
     18 O3        -25.8380  -38.9730    2.4170 O.co2  307  D3F307      0.0000
     19 O4        -23.4020  -38.6880    2.8340 O.co2  307  D3F307      0.0000
     20 C14       -25.0800  -36.9690    7.7920 C.3    307  D3F307      0.0000
     21 F1        -24.7940  -35.8630    7.0910 F      307  D3F307      0.0000
     22 F2        -26.2530  -36.8170    8.4450 F      307  D3F307      0.0000
     23 F3        -24.1150  -37.1370    8.7080 F      307  D3F307      0.0000
     24 N2        -25.4380  -41.7700    7.0830 N.pl3  307  D3F307      0.0000
     25 O5        -26.6830  -42.4590    6.9510 O.co2  307  D3F307      0.0000
     26 O6        -24.3480  -42.3630    7.7950 O.co2  307  D3F307      0.0000
     27 CL1       -24.8170  -43.8210    2.1090 Cl     307  D3F307      0.0000
     28 CL2       -22.0230  -47.0860    5.2810 Cl     307  D3F307      0.0000
     29 H         -23.1957  -46.1277    2.8840 H      307  D3F307      0.0000
     30 H         -23.6355  -42.7304    6.0860 H      307  D3F307      0.0000
     31 H         -22.3027  -44.3506    7.9035 H      307  D3F307      0.0000
     32 H         -22.2884  -46.0811    7.5428 H      307  D3F307      0.0000
     33 H         -23.8063  -45.3251    8.0661 H      307  D3F307      0.0000
     34 H         -25.4217  -39.6019    8.4488 H      307  D3F307      0.0000
     35 H         -24.7641  -37.0461    5.0435 H      307  D3F307      0.0000
     36 H         -25.2866  -39.5819    1.2563 H      307  D3F307      0.0000
     37 H         -22.7464  -39.8298    3.3689 H      307  D3F307      0.0000
     38 H         -26.2971  -43.7363    6.4675 H      307  D3F307      0.0000
     39 H         -24.7274  -41.9684    9.1074 H      307  D3F307      0.0000
@<TRIPOS>BOND
     1     1     2   ar
     2     1     6   ar
     3     1    28    1
     4     2     3   ar
     5     2    29    1
     6     3     4   ar
     7     3    27    1
     8     4     5   ar
     9     4     8    1
    10     5     6   ar
    11     5    30    1
    12     6     7    1
    13     7    31    1
    14     7    32    1
    15     7    33    1
    16     8     9    2
    17     8    10    2
    18     8    11    1
    19    11    12   ar
    20    11    16   ar
    21    12    13   ar
    22    12    24    1
    23    13    14   ar
    24    13    34    1
    25    14    15   ar
    26    14    20    1
    27    15    16   ar
    28    15    35    1
    29    16    17    1
    30    17    18    1
    31    17    19    1
    32    18    36    1
    33    19    37    1
    34    20    21    1
    35    20    22    1
    36    20    23    1
    37    24    25    1
    38    24    26    1
    39    25    38    1
    40    26    39    1

