@<TRIPOS>MOLECULE
OHP_1_A_201
 18 18 0 0 0
SMALL
NO_CHARGES

@<TRIPOS>ATOM
      1 C8        -43.4070  -31.9090    2.4160 C.2    201  OHP201      0.0000
      2 C7        -43.3910  -31.2560    1.0580 C.3    201  OHP201      0.0000
      3 C3        -44.7580  -30.7960    0.6060 C.ar   201  OHP201      0.0000
      4 C4        -45.7330  -31.6960    0.3480 C.ar   201  OHP201      0.0000
      5 C5        -46.9770  -31.2750   -0.0830 C.ar   201  OHP201      0.0000
      6 C6        -47.2290  -29.9420   -0.2630 C.ar   201  OHP201      0.0000
      7 C1        -46.2320  -29.0270    0.0220 C.ar   201  OHP201      0.0000
      8 C2        -45.0000  -29.4580    0.4570 C.ar   201  OHP201      0.0000
      9 O2        -45.4540  -33.0600    0.4960 O.3    201  OHP201      0.0000
     10 O9        -43.9390  -32.9990    2.4890 O.co2  201  OHP201     -0.5000
     11 O10       -42.8960  -31.4220    3.3930 O.co2  201  OHP201     -0.5000
     12 H         -42.9759  -31.9658    0.3059 H      201  OHP201      0.0000
     13 H         -42.6834  -30.3962    1.0738 H      201  OHP201      0.0000
     14 H         -47.7736  -32.0077   -0.2978 H      201  OHP201      0.0000
     15 H         -48.2148  -29.5998   -0.6212 H      201  OHP201      0.0000
     16 H         -46.4256  -27.9478   -0.1038 H      201  OHP201      0.0000
     17 H         -44.2167  -28.7125    0.6767 H      201  OHP201      0.0000
     18 H         -46.2164  -33.6068    0.3730 H      201  OHP201      0.0000
@<TRIPOS>BOND
     1     1     2    1
     2     1    10   ar
     3     1    11   ar
     4     2     3    1
     5     2    12    1
     6     2    13    1
     7     3     4   ar
     8     3     8   ar
     9     4     5   ar
    10     4     9    1
    11     5     6   ar
    12     5    14    1
    13     6     7   ar
    14     6    15    1
    15     7     8   ar
    16     7    16    1
    17     8    17    1
    18     9    18    1

