DMS_2_A_402
  -ISIS-            3D

 10  9  0  0  0  0  0  0  0  0  1 V2000
   -2.4160  -18.8970   -8.0340 S   0  0  0  0  0
   -3.7050  -18.7060   -8.8740 O   0  0  0  0  0
   -1.1060  -18.1570   -8.9920 C   0  0  0  0  0
   -1.9570  -20.5840   -8.3680 C   0  0  0  0  0
   -0.1223  -18.4221   -8.5536 H   0  0  0  0  0
   -1.2197  -17.0538   -8.9737 H   0  0  0  0  0
   -1.1496  -18.5056  -10.0444 H   0  0  0  0  0
   -0.9472  -20.7886   -7.9572 H   0  0  0  0  0
   -1.9589  -20.7795   -9.4602 H   0  0  0  0  0
   -2.6847  -21.2642   -7.8798 H   0  0  0  0  0
  1  2  2  0  0  0
  1  3  1  0  0  0
  1  4  1  0  0  0
  3  5  1  0  0  0
  3  6  1  0  0  0
  3  7  1  0  0  0
  4  8  1  0  0  0
  4  9  1  0  0  0
  4 10  1  0  0  0
M  END
$$$$
