K36_2_A_401
  -ISIS-            3D

 60 61  0  0  0  0  0  0  0  0  1 V2000
    5.0980    3.2620   45.5310 C   0  0  0  0  0
    5.9380    2.8970   44.4090 O   0  0  0  0  0
    5.7240    1.6800   43.8840 C   0  0  0  0  0
    5.0920    1.4800   42.8700 O   0  0  0  0  0
    3.6970    3.5890   45.0970 C   0  0  0  0  0
    3.4470    4.6430   44.2330 C   0  0  0  0  0
    2.1470    4.9460   43.8520 C   0  0  0  0  0
    1.0890    4.2130   44.3420 C   0  0  0  0  0
    1.3240    3.1660   45.2010 C   0  0  0  0  0
    2.6230    2.8560   45.5800 C   0  0  0  0  0
    6.3210    0.7260   44.6200 N   0  0  0  0  0
    6.3990   -0.6340   44.1180 C   0  0  0  0  0
    5.0260   -1.2670   43.9000 C   0  0  0  0  0
    4.3110   -1.5410   44.8640 O   0  0  0  0  0
    7.2280   -1.5010   45.0610 C   0  0  0  0  0
    8.6990   -1.1020   45.1780 C   0  0  0  0  0
    9.4470   -2.0930   46.0410 C   0  0  0  0  0
    9.3610   -0.9840   43.8150 C   0  0  0  0  0
    4.6870   -1.5150   42.6300 N   0  0  0  0  0
    3.4130   -2.0990   42.2010 C   0  0  0  0  0
    3.6160   -3.5900   41.8900 C   0  0  0  0  0
    2.3550   -4.2580   41.8150 O   0  0  0  0  0
    2.8540   -1.2900   41.0250 C   0  0  0  0  0
    2.5050    0.1380   41.4300 C   0  0  0  0  0
    1.3220    0.3090   42.3750 C   0  0  0  0  0
    0.7230    1.6560   41.9930 C   0  0  0  0  0
    1.1520    1.8260   40.6080 N   0  0  0  0  0
    2.1530    1.0270   40.2520 C   0  0  0  0  0
    2.7240    1.0210   39.1440 O   0  0  0  0  0
    5.5313    4.1554   46.0275 H   0  0  0  0  0
    5.0935    2.4641   46.3016 H   0  0  0  0  0
    4.2832    5.2445   43.8377 H   0  0  0  0  0
    1.9619    5.7822   43.1562 H   0  0  0  0  0
    0.0567    4.4650   44.0440 H   0  0  0  0  0
    0.4807    2.5718   45.5928 H   0  0  0  0  0
    2.7906    2.0125   46.2715 H   0  0  0  0  0
    6.7492    0.9736   45.5203 H   0  0  0  0  0
    6.9157   -0.6259   43.1306 H   0  0  0  0  0
    7.1744   -2.5564   44.7031 H   0  0  0  0  0
    6.7625   -1.4960   46.0744 H   0  0  0  0  0
    8.7612   -0.1044   45.6778 H   0  0  0  0  0
   10.5100   -1.7959   46.1860 H   0  0  0  0  0
    9.4509   -3.1143   45.5984 H   0  0  0  0  0
    8.9982   -2.1774   47.0562 H   0  0  0  0  0
   10.4582   -0.8216   43.9094 H   0  0  0  0  0
    8.9776   -0.1224   43.2259 H   0  0  0  0  0
    9.2231   -1.9019   43.2007 H   0  0  0  0  0
    5.3514   -1.2509   41.8891 H   0  0  0  0  0
    2.6727   -2.0388   43.0336 H   0  0  0  0  0
    4.2057   -4.0653   42.7032 H   0  0  0  0  0
    4.1932   -3.7279   40.9505 H   0  0  0  0  0
    2.1452   -4.4148   40.9038 H   0  0  0  0  0
    1.9437   -1.7887   40.6204 H   0  0  0  0  0
    3.6005   -1.2812   40.1977 H   0  0  0  0  0
    3.3944    0.6033   41.9012 H   0  0  0  0  0
    1.6199    0.2705   43.4468 H   0  0  0  0  0
    0.5730   -0.4971   42.1983 H   0  0  0  0  0
    1.1450    2.4608   42.6282 H   0  0  0  0  0
   -0.3840    1.6612   42.1062 H   0  0  0  0  0
    0.7456    2.5079   39.9547 H   0  0  0  0  0
  1  2  1  0  0  0
  1  5  1  0  0  0
  1 30  1  0  0  0
  1 31  1  0  0  0
  2  3  1  0  0  0
  3  4  2  0  0  0
  3 11  1  0  0  0
  5  6  2  0  0  0
  5 10  1  0  0  0
  6  7  1  0  0  0
  6 32  1  0  0  0
  7  8  2  0  0  0
  7 33  1  0  0  0
  8  9  1  0  0  0
  8 34  1  0  0  0
  9 10  2  0  0  0
  9 35  1  0  0  0
 10 36  1  0  0  0
 11 12  1  0  0  0
 11 37  1  0  0  0
 12 13  1  0  0  0
 12 15  1  0  0  0
 12 38  1  0  0  0
 13 14  2  0  0  0
 13 19  1  0  0  0
 15 16  1  0  0  0
 15 39  1  0  0  0
 15 40  1  0  0  0
 16 17  1  0  0  0
 16 18  1  0  0  0
 16 41  1  0  0  0
 17 42  1  0  0  0
 17 43  1  0  0  0
 17 44  1  0  0  0
 18 45  1  0  0  0
 18 46  1  0  0  0
 18 47  1  0  0  0
 19 20  1  0  0  0
 19 48  1  0  0  0
 20 21  1  0  0  0
 20 23  1  0  0  0
 20 49  1  0  0  0
 21 22  1  0  0  0
 21 50  1  0  0  0
 21 51  1  0  0  0
 22 52  1  0  0  0
 23 24  1  0  0  0
 23 53  1  0  0  0
 23 54  1  0  0  0
 24 25  1  0  0  0
 24 28  1  0  0  0
 24 55  1  0  0  0
 25 26  1  0  0  0
 25 56  1  0  0  0
 25 57  1  0  0  0
 26 27  1  0  0  0
 26 58  1  0  0  0
 26 59  1  0  0  0
 27 28  1  0  0  0
 27 60  1  0  0  0
 28 29  2  0  0  0
M  END
$$$$
