EDO_3_A_414
  -ISIS-            3D

 10  9  0  0  0  0  0  0  0  0  1 V2000
  -81.5830    7.6600   32.4220 C   0  0  0  0  0
  -81.2750    6.9740   31.2040 O   0  0  0  0  0
  -82.6580    8.7290   32.1980 C   0  0  0  0  0
  -83.7050    8.2380   31.3460 O   0  0  0  0  0
  -80.6618    8.1189   32.8385 H   0  0  0  0  0
  -81.9491    6.9220   33.1677 H   0  0  0  0  0
  -80.7060    6.2429   31.4072 H   0  0  0  0  0
  -82.1954    9.6207   31.7229 H   0  0  0  0  0
  -83.0867    9.0580   33.1678 H   0  0  0  0  0
  -84.2510    8.9702   31.0904 H   0  0  0  0  0
  1  2  1  0  0  0
  1  3  1  0  0  0
  1  5  1  0  0  0
  1  6  1  0  0  0
  2  7  1  0  0  0
  3  4  1  0  0  0
  3  8  1  0  0  0
  3  9  1  0  0  0
  4 10  1  0  0  0
M  END
$$$$
