@<TRIPOS>MOLECULE
EDO_2_B_409
 10 9 0 0 0
SMALL
NO_CHARGES

@<TRIPOS>ATOM
      1 C1       -114.4450   71.0330  -26.8720 C.3    409  EDO409      0.0000
      2 O1       -115.8680   70.8240  -26.7850 O.3    409  EDO409      0.0000
      3 C2       -114.0770   71.4370  -28.2890 C.3    409  EDO409      0.0000
      4 O2       -114.1340   70.2490  -29.0920 O.3    409  EDO409      0.0000
      5 H        -113.9027   70.1155  -26.5606 H      409  EDO409      0.0000
      6 H        -114.1578   71.8417  -26.1665 H      409  EDO409      0.0000
      7 H        -116.0764   70.5845  -25.8918 H      409  EDO409      0.0000
      8 H        -113.0442   71.8410  -28.3249 H      409  EDO409      0.0000
      9 H        -114.7587   72.2145  -28.6916 H      409  EDO409      0.0000
     10 H        -115.0234   69.9220  -29.0304 H      409  EDO409      0.0000
@<TRIPOS>BOND
     1     1     2    1
     2     1     3    1
     3     1     5    1
     4     1     6    1
     5     2     7    1
     6     3     4    1
     7     3     8    1
     8     3     9    1
     9     4    10    1

