@<TRIPOS>MOLECULE
EDO_2_A_402
 10 9 0 0 0
SMALL
NO_CHARGES

@<TRIPOS>ATOM
      1 C1        -63.8360   59.9200    0.0750 C.3    402  EDO402      0.0000
      2 O1        -63.7310   61.0040    1.0400 O.3    402  EDO402      0.0000
      3 C2        -62.7450   59.8870   -0.9900 C.3    402  EDO402      0.0000
      4 O2        -61.6220   60.7130   -0.5890 O.3    402  EDO402      0.0000
      5 H         -64.8367   59.9664   -0.4025 H      402  EDO402      0.0000
      6 H         -63.8141   58.9662    0.6441 H      402  EDO402      0.0000
      7 H         -62.8345   61.3159    0.9912 H      402  EDO402      0.0000
      8 H         -63.1457   60.2750   -1.9508 H      402  EDO402      0.0000
      9 H         -62.4029   58.8466   -1.1723 H      402  EDO402      0.0000
     10 H         -60.9709   60.6764   -1.2766 H      402  EDO402      0.0000
@<TRIPOS>BOND
     1     1     2    1
     2     1     3    1
     3     1     5    1
     4     1     6    1
     5     2     7    1
     6     3     4    1
     7     3     8    1
     8     3     9    1
     9     4    10    1

