@<TRIPOS>MOLECULE
EDO_1_A_410
 10 9 0 0 0
SMALL
NO_CHARGES

@<TRIPOS>ATOM
      1 C1        -49.1730   65.0490   46.2210 C.3    410  EDO410      0.0000
      2 O1        -48.6830   66.3890   46.3560 O.3    410  EDO410      0.0000
      3 C2        -50.1750   64.7800   47.3310 C.3    410  EDO410      0.0000
      4 O2        -51.0210   65.9300   47.4110 O.3    410  EDO410      0.0000
      5 H         -48.3249   64.3358   46.2653 H      410  EDO410      0.0000
      6 H         -49.6514   64.9357   45.2253 H      410  EDO410      0.0000
      7 H         -49.4392   66.9431   46.5116 H      410  EDO410      0.0000
      8 H         -49.6538   64.6329   48.3006 H      410  EDO410      0.0000
      9 H         -50.7740   63.8702   47.1182 H      410  EDO410      0.0000
     10 H         -51.6458   65.7884   48.1095 H      410  EDO410      0.0000
@<TRIPOS>BOND
     1     1     2    1
     2     1     3    1
     3     1     5    1
     4     1     6    1
     5     2     7    1
     6     3     4    1
     7     3     8    1
     8     3     9    1
     9     4    10    1

