@<TRIPOS>MOLECULE
EDO_1_B_406
 10 9 0 0 0
SMALL
NO_CHARGES

@<TRIPOS>ATOM
      1 C1        -42.7620   59.9310  -32.0200 C.3    406  EDO406      0.0000
      2 O1        -42.5870   58.8410  -31.1070 O.3    406  EDO406      0.0000
      3 C2        -42.8910   61.2210  -31.2210 C.3    406  EDO406      0.0000
      4 O2        -44.1330   61.2060  -30.5150 O.3    406  EDO406      0.0000
      5 H         -43.6624   59.7651  -32.6484 H      406  EDO406      0.0000
      6 H         -41.8836   59.9845  -32.6972 H      406  EDO406      0.0000
      7 H         -42.6484   58.0297  -31.5941 H      406  EDO406      0.0000
      8 H         -42.8462   62.1010  -31.8976 H      406  EDO406      0.0000
      9 H         -42.0571   61.3218  -30.4962 H      406  EDO406      0.0000
     10 H         -44.7057   61.8648  -30.8859 H      406  EDO406      0.0000
@<TRIPOS>BOND
     1     1     2    1
     2     1     3    1
     3     1     5    1
     4     1     6    1
     5     2     7    1
     6     3     4    1
     7     3     8    1
     8     3     9    1
     9     4    10    1

