EDO_1_B_412
  -ISIS-            3D

 10  9  0  0  0  0  0  0  0  0  1 V2000
  -38.1750   40.4590  -30.8820 C   0  0  0  0  0
  -37.5180   40.1400  -29.6450 O   0  0  0  0  0
  -38.1740   41.9680  -31.1180 C   0  0  0  0  0
  -36.8280   42.4690  -31.0310 O   0  0  0  0  0
  -39.2138   40.0708  -30.8502 H   0  0  0  0  0
  -37.6563   39.9366  -31.7131 H   0  0  0  0  0
  -36.7736   40.7276  -29.5778 H   0  0  0  0  0
  -38.7914   42.4749  -30.3475 H   0  0  0  0  0
  -38.6159   42.2163  -32.1059 H   0  0  0  0  0
  -36.4480   42.4604  -31.8996 H   0  0  0  0  0
  1  2  1  0  0  0
  1  3  1  0  0  0
  1  5  1  0  0  0
  1  6  1  0  0  0
  2  7  1  0  0  0
  3  4  1  0  0  0
  3  8  1  0  0  0
  3  9  1  0  0  0
  4 10  1  0  0  0
M  END
$$$$
