@<TRIPOS>MOLECULE
EDO_3_A_404
 10 9 0 0 0
SMALL
NO_CHARGES

@<TRIPOS>ATOM
      1 C1        -51.6010    4.5970   36.0650 C.3    404  EDO404      0.0000
      2 O1        -51.8730    5.0510   37.4040 O.3    404  EDO404      0.0000
      3 C2        -50.3230    5.1480   35.4370 C.3    404  EDO404      0.0000
      4 O2        -49.2070    4.9400   36.3270 O.3    404  EDO404      0.0000
      5 H         -52.4707    4.8569   35.4261 H      404  EDO404      0.0000
      6 H         -51.5512    3.4872   36.0797 H      404  EDO404      0.0000
      7 H         -51.0405    5.0225   37.8613 H      404  EDO404      0.0000
      8 H         -50.4365    6.2356   35.2427 H      404  EDO404      0.0000
      9 H         -50.1246    4.6526   34.4632 H      404  EDO404      0.0000
     10 H         -48.4297    5.2870   35.9102 H      404  EDO404      0.0000
@<TRIPOS>BOND
     1     1     2    1
     2     1     3    1
     3     1     5    1
     4     1     6    1
     5     2     7    1
     6     3     4    1
     7     3     8    1
     8     3     9    1
     9     4    10    1

