@<TRIPOS>MOLECULE
EDO_1_A_409
 10 9 0 0 0
SMALL
NO_CHARGES

@<TRIPOS>ATOM
      1 C1        -65.0220   53.4640   29.3830 C.3    409  EDO409      0.0000
      2 O1        -65.5380   52.2890   30.0160 O.3    409  EDO409      0.0000
      3 C2        -63.5560   53.5810   29.7800 C.3    409  EDO409      0.0000
      4 O2        -62.7260   52.6690   29.0430 O.3    409  EDO409      0.0000
      5 H         -65.5897   54.3510   29.7358 H      409  EDO409      0.0000
      6 H         -65.1387   53.3971   28.2814 H      409  EDO409      0.0000
      7 H         -66.4539   52.2073   29.7859 H      409  EDO409      0.0000
      8 H         -63.4210   53.4181   30.8700 H      409  EDO409      0.0000
      9 H         -63.1987   54.6107   29.5689 H      409  EDO409      0.0000
     10 H         -63.0559   51.7978   29.2253 H      409  EDO409      0.0000
@<TRIPOS>BOND
     1     1     2    1
     2     1     3    1
     3     1     5    1
     4     1     6    1
     5     2     7    1
     6     3     4    1
     7     3     8    1
     8     3     9    1
     9     4    10    1

