@<TRIPOS>MOLECULE
EDO_1_B_407
 10 9 0 0 0
SMALL
NO_CHARGES

@<TRIPOS>ATOM
      1 C1        -49.1570   49.2230  -33.8910 C.3    407  EDO407      0.0000
      2 O1        -48.1780   50.2180  -33.5600 O.3    407  EDO407      0.0000
      3 C2        -50.3930   49.8680  -34.5300 C.3    407  EDO407      0.0000
      4 O2        -50.5210   49.5770  -35.9360 O.3    407  EDO407      0.0000
      5 H         -49.4506   48.6878  -32.9627 H      407  EDO407      0.0000
      6 H         -48.7102   48.4694  -34.5726 H      407  EDO407      0.0000
      7 H         -47.4408   49.7852  -33.1493 H      407  EDO407      0.0000
      8 H         -50.3930   50.9673  -34.3750 H      407  EDO407      0.0000
      9 H         -51.3056   49.4870  -34.0252 H      407  EDO407      0.0000
     10 H         -49.8582   50.0781  -36.3926 H      407  EDO407      0.0000
@<TRIPOS>BOND
     1     1     2    1
     2     1     3    1
     3     1     5    1
     4     1     6    1
     5     2     7    1
     6     3     4    1
     7     3     8    1
     8     3     9    1
     9     4    10    1

