EDO_3_B_413
  -ISIS-            3D

 10  9  0  0  0  0  0  0  0  0  1 V2000
  -72.1730    2.4990  -23.5140 C   0  0  0  0  0
  -71.3270    1.3670  -23.2990 O   0  0  0  0  0
  -72.7150    2.3590  -24.9270 C   0  0  0  0  0
  -72.0510    3.2880  -25.7900 O   0  0  0  0  0
  -71.6079    3.4432  -23.3710 H   0  0  0  0  0
  -73.0019    2.4816  -22.7750 H   0  0  0  0  0
  -70.9877    1.4155  -22.4151 H   0  0  0  0  0
  -73.7984    2.6012  -24.9371 H   0  0  0  0  0
  -72.6186    1.3258  -25.3210 H   0  0  0  0  0
  -71.1753    2.9573  -25.9430 H   0  0  0  0  0
  1  2  1  0  0  0
  1  3  1  0  0  0
  1  5  1  0  0  0
  1  6  1  0  0  0
  2  7  1  0  0  0
  3  4  1  0  0  0
  3  8  1  0  0  0
  3  9  1  0  0  0
  4 10  1  0  0  0
M  END
$$$$
