EDO_1_A_403
  -ISIS-            3D

 10  9  0  0  0  0  0  0  0  0  1 V2000
  -48.4660   41.0300   39.0470 C   0  0  0  0  0
  -48.0200   40.5720   37.7690 O   0  0  0  0  0
  -49.8670   41.6020   38.9140 C   0  0  0  0  0
  -50.1120   42.4870   40.0060 O   0  0  0  0  0
  -47.7570   41.7951   39.4293 H   0  0  0  0  0
  -48.4539   40.1844   39.7650 H   0  0  0  0  0
  -47.7093   41.3183   37.2737 H   0  0  0  0  0
  -50.6333   40.7996   38.8790 H   0  0  0  0  0
  -49.9609   42.1857   37.9747 H   0  0  0  0  0
  -50.3571   41.9699   40.7623 H   0  0  0  0  0
  1  2  1  0  0  0
  1  3  1  0  0  0
  1  5  1  0  0  0
  1  6  1  0  0  0
  2  7  1  0  0  0
  3  4  1  0  0  0
  3  8  1  0  0  0
  3  9  1  0  0  0
  4 10  1  0  0  0
M  END
$$$$
