@<TRIPOS>MOLECULE
EDO_1_A_402
 10 9 0 0 0
SMALL
NO_CHARGES

@<TRIPOS>ATOM
      1 C1        -66.9740   25.3230    0.0750 C.3    402  EDO402      0.0000
      2 O1        -66.0870   24.6910    1.0400 O.3    402  EDO402      0.0000
      3 C2        -67.5470   24.3950   -0.9900 C.3    402  EDO402      0.0000
      4 O2        -67.3940   23.0100   -0.5890 O.3    402  EDO402      0.0000
      5 H         -66.4376   26.1645   -0.4130 H      402  EDO402      0.0000
      6 H         -67.8170   25.7803    0.6370 H      402  EDO402      0.0000
      7 H         -65.8140   25.3495    1.6645 H      402  EDO402      0.0000
      8 H         -67.0109   24.5390   -1.9515 H      402  EDO402      0.0000
      9 H         -68.6188   24.6085   -1.1792 H      402  EDO402      0.0000
     10 H         -66.6914   22.9821    0.0505 H      402  EDO402      0.0000
@<TRIPOS>BOND
     1     1     2    1
     2     1     3    1
     3     1     5    1
     4     1     6    1
     5     2     7    1
     6     3     4    1
     7     3     8    1
     8     3     9    1
     9     4    10    1

