@<TRIPOS>MOLECULE
EDO_3_B_402
 10 9 0 0 0
SMALL
NO_CHARGES

@<TRIPOS>ATOM
      1 C1        -57.2650   34.7260   -0.0920 C.3    402  EDO402      0.0000
      2 O1        -56.7340   33.7090   -0.9660 O.3    402  EDO402      0.0000
      3 C2        -56.3890   35.0970    1.1070 C.3    402  EDO402      0.0000
      4 O2        -55.0030   35.2130    0.7240 O.3    402  EDO402      0.0000
      5 H         -58.2655   34.3997    0.2607 H      402  EDO402      0.0000
      6 H         -57.4388   35.6378   -0.7029 H      402  EDO402      0.0000
      7 H         -55.7956   33.8578   -0.9937 H      402  EDO402      0.0000
      8 H         -56.4785   34.3110    1.8870 H      402  EDO402      0.0000
      9 H         -56.7359   36.0502    1.5588 H      402  EDO402      0.0000
     10 H         -54.5021   35.4429    1.4951 H      402  EDO402      0.0000
@<TRIPOS>BOND
     1     1     2    1
     2     1     3    1
     3     1     5    1
     4     1     6    1
     5     2     7    1
     6     3     4    1
     7     3     8    1
     8     3     9    1
     9     4    10    1

