@<TRIPOS>MOLECULE
EDO_3_A_407
 10 9 0 0 0
SMALL
NO_CHARGES

@<TRIPOS>ATOM
      1 C1        -78.5750   15.9670   12.8540 C.3    407  EDO407      0.0000
      2 O1        -77.5550   15.9540   13.8600 O.3    407  EDO407      0.0000
      3 C2        -79.3470   14.6530   12.8870 C.3    407  EDO407      0.0000
      4 O2        -79.0210   13.8430   11.7500 O.3    407  EDO407      0.0000
      5 H         -78.1301   16.1602   11.8558 H      407  EDO407      0.0000
      6 H         -79.2590   16.8143   13.0690 H      407  EDO407      0.0000
      7 H         -76.8584   15.3868   13.5554 H      407  EDO407      0.0000
      8 H         -80.4381   14.8623   12.8712 H      407  EDO407      0.0000
      9 H         -79.1428   14.0894   13.8213 H      407  EDO407      0.0000
     10 H         -79.5336   13.0469   11.7957 H      407  EDO407      0.0000
@<TRIPOS>BOND
     1     1     2    1
     2     1     3    1
     3     1     5    1
     4     1     6    1
     5     2     7    1
     6     3     4    1
     7     3     8    1
     8     3     9    1
     9     4    10    1

