EDO_2_A_401
  -ISIS-            3D

 10  9  0  0  0  0  0  0  0  0  1 V2000
  -74.1820   55.3970   15.7480 C   0  0  0  0  0
  -72.8960   55.9300   15.4430 O   0  0  0  0  0
  -74.6350   54.7590   14.4570 C   0  0  0  0  0
  -73.9520   53.5190   14.2550 O   0  0  0  0  0
  -74.8711   56.2054   16.0709 H   0  0  0  0  0
  -74.1044   54.6577   16.5707 H   0  0  0  0  0
  -72.9902   56.8401   15.1925 H   0  0  0  0  0
  -74.4697   55.4346   13.5911 H   0  0  0  0  0
  -75.7263   54.5572   14.5053 H   0  0  0  0  0
  -74.1586   53.1998   13.3861 H   0  0  0  0  0
  1  2  1  0  0  0
  1  3  1  0  0  0
  1  5  1  0  0  0
  1  6  1  0  0  0
  2  7  1  0  0  0
  3  4  1  0  0  0
  3  8  1  0  0  0
  3  9  1  0  0  0
  4 10  1  0  0  0
M  END
$$$$
