@<TRIPOS>MOLECULE
EDO_1_A_408
 10 9 0 0 0
SMALL
NO_CHARGES

@<TRIPOS>ATOM
      1 C1        -52.4050   76.4130   44.6270 C.3    408  EDO408      0.0000
      2 O1        -53.4720   76.1230   45.5200 O.3    408  EDO408      0.0000
      3 C2        -52.7600   77.6940   43.8930 C.3    408  EDO408      0.0000
      4 O2        -54.0930   77.5690   43.4070 O.3    408  EDO408      0.0000
      5 H         -52.2793   75.5744   43.9096 H      408  EDO408      0.0000
      6 H         -51.4538   76.5294   45.1874 H      408  EDO408      0.0000
      7 H         -53.2650   75.3198   45.9787 H      408  EDO408      0.0000
      8 H         -52.0691   77.8752   43.0446 H      408  EDO408      0.0000
      9 H         -52.6953   78.5706   44.5715 H      408  EDO408      0.0000
     10 H         -54.6163   77.2375   44.1280 H      408  EDO408      0.0000
@<TRIPOS>BOND
     1     1     2    1
     2     1     3    1
     3     1     5    1
     4     1     6    1
     5     2     7    1
     6     3     4    1
     7     3     8    1
     8     3     9    1
     9     4    10    1

