EDO_2_A_414
  -ISIS-            3D

 10  9  0  0  0  0  0  0  0  0  1 V2000
 -103.3590   66.8230   32.4220 C   0  0  0  0  0
 -104.1070   66.8990   31.2040 O   0  0  0  0  0
 -101.8950   67.2190   32.1980 C   0  0  0  0  0
 -101.7980   68.3720   31.3460 O   0  0  0  0  0
 -103.4309   65.7960   32.8350 H   0  0  0  0  0
 -103.8244   67.5050   33.1645 H   0  0  0  0  0
 -103.7052   67.5823   30.6788 H   0  0  0  0  0
 -101.3558   66.3819   31.7071 H   0  0  0  0  0
 -101.3825   67.4065   33.1650 H   0  0  0  0  0
 -101.8284   69.1480   31.8900 H   0  0  0  0  0
  1  2  1  0  0  0
  1  3  1  0  0  0
  1  5  1  0  0  0
  1  6  1  0  0  0
  2  7  1  0  0  0
  3  4  1  0  0  0
  3  8  1  0  0  0
  3  9  1  0  0  0
  4 10  1  0  0  0
M  END
$$$$
