@<TRIPOS>MOLECULE
EDO_2_A_413
 10 9 0 0 0
SMALL
NO_CHARGES

@<TRIPOS>ATOM
      1 C1        -93.8470   61.9760   34.8300 C.3    413  EDO413      0.0000
      2 O1        -93.8050   61.7660   36.2610 O.3    413  EDO413      0.0000
      3 C2        -95.2620   62.1300   34.2670 C.3    413  EDO413      0.0000
      4 O2        -95.4720   63.4530   33.7600 O.3    413  EDO413      0.0000
      5 H         -93.3560   61.1038   34.3492 H      413  EDO413      0.0000
      6 H         -93.2225   62.8565   34.5698 H      413  EDO413      0.0000
      7 H         -94.0049   62.5941   36.6773 H      413  EDO413      0.0000
      8 H         -96.0182   61.9076   35.0488 H      413  EDO413      0.0000
      9 H         -95.4224   61.3998   33.4452 H      413  EDO413      0.0000
     10 H         -96.3490   63.4992   33.4028 H      413  EDO413      0.0000
@<TRIPOS>BOND
     1     1     2    1
     2     1     3    1
     3     1     5    1
     4     1     6    1
     5     2     7    1
     6     3     4    1
     7     3     8    1
     8     3     9    1
     9     4    10    1

