@<TRIPOS>MOLECULE
EDO_3_B_412
 10 9 0 0 0
SMALL
NO_CHARGES

@<TRIPOS>ATOM
      1 C1        -96.6580   12.8310  -30.8820 C.3    412  EDO412      0.0000
      2 O1        -97.2630   12.4210  -29.6450 O.3    412  EDO412      0.0000
      3 C2        -95.3510   12.0750  -31.1180 C.3    412  EDO412      0.0000
      4 O2        -95.5910   10.6590  -31.0310 O.3    412  EDO412      0.0000
      5 H         -96.4663   13.9246  -30.8584 H      412  EDO412      0.0000
      6 H         -97.3641   12.6369  -31.7173 H      412  EDO412      0.0000
      7 H         -98.0646   12.9137  -29.5307 H      412  EDO412      0.0000
      8 H         -94.5913   12.3644  -30.3618 H      412  EDO412      0.0000
      9 H         -94.9319   12.3139  -32.1169 H      412  EDO412      0.0000
     10 H         -96.1318   10.5303  -30.2598 H      412  EDO412      0.0000
@<TRIPOS>BOND
     1     1     2    1
     2     1     3    1
     3     1     5    1
     4     1     6    1
     5     2     7    1
     6     3     4    1
     7     3     8    1
     8     3     9    1
     9     4    10    1

