EDO_2_A_402
  -ISIS-            3D

 10  9  0  0  0  0  0  0  0  0  1 V2000
  -63.8360   59.9200    0.0750 C   0  0  0  0  0
  -63.7310   61.0040    1.0400 O   0  0  0  0  0
  -62.7450   59.8870   -0.9900 C   0  0  0  0  0
  -61.6220   60.7130   -0.5890 O   0  0  0  0  0
  -64.8367   59.9664   -0.4025 H   0  0  0  0  0
  -63.8141   58.9662    0.6441 H   0  0  0  0  0
  -62.8345   61.3159    0.9912 H   0  0  0  0  0
  -63.1457   60.2750   -1.9508 H   0  0  0  0  0
  -62.4029   58.8466   -1.1723 H   0  0  0  0  0
  -60.9709   60.6764   -1.2766 H   0  0  0  0  0
  1  2  1  0  0  0
  1  3  1  0  0  0
  1  5  1  0  0  0
  1  6  1  0  0  0
  2  7  1  0  0  0
  3  4  1  0  0  0
  3  8  1  0  0  0
  3  9  1  0  0  0
  4 10  1  0  0  0
M  END
$$$$
