@<TRIPOS>MOLECULE
EDO_3_B_405
 10 9 0 0 0
SMALL
NO_CHARGES

@<TRIPOS>ATOM
      1 C1        -76.4620   -2.7850  -33.0620 C.3    405  EDO405      0.0000
      2 O1        -77.6790   -2.0420  -32.9320 O.3    405  EDO405      0.0000
      3 C2        -75.8530   -2.9970  -31.6800 C.3    405  EDO405      0.0000
      4 O2        -75.0480   -1.8710  -31.3190 O.3    405  EDO405      0.0000
      5 H         -75.7564   -2.2571  -33.7370 H      405  EDO405      0.0000
      6 H         -76.6919   -3.7683  -33.5252 H      405  EDO405      0.0000
      7 H         -78.0496   -1.9259  -33.7968 H      405  EDO405      0.0000
      8 H         -75.1994   -3.8942  -31.6919 H      405  EDO405      0.0000
      9 H         -76.6331   -3.1771  -30.9114 H      405  EDO405      0.0000
     10 H         -75.6299   -1.1242  -31.2545 H      405  EDO405      0.0000
@<TRIPOS>BOND
     1     1     2    1
     2     1     3    1
     3     1     5    1
     4     1     6    1
     5     2     7    1
     6     3     4    1
     7     3     8    1
     8     3     9    1
     9     4    10    1

