EDO_3_A_411
  -ISIS-            3D

 10  9  0  0  0  0  0  0  0  0  1 V2000
  -70.2460    5.3950   42.5510 C   0  0  0  0  0
  -71.6640    5.3250   42.3290 O   0  0  0  0  0
  -69.8190    4.4170   43.6470 C   0  0  0  0  0
  -68.3890    4.2990   43.6720 O   0  0  0  0  0
  -69.9609    6.4316   42.8292 H   0  0  0  0  0
  -69.7217    5.1493   41.6029 H   0  0  0  0  0
  -71.8840    5.9345   41.6370 H   0  0  0  0  0
  -70.2615    3.4164   43.4546 H   0  0  0  0  0
  -70.1865    4.7614   44.6366 H   0  0  0  0  0
  -68.1566    3.6773   44.3489 H   0  0  0  0  0
  1  2  1  0  0  0
  1  3  1  0  0  0
  1  5  1  0  0  0
  1  6  1  0  0  0
  2  7  1  0  0  0
  3  4  1  0  0  0
  3  8  1  0  0  0
  3  9  1  0  0  0
  4 10  1  0  0  0
M  END
$$$$
