EDO_3_B_403
  -ISIS-            3D

 10  9  0  0  0  0  0  0  0  0  1 V2000
  -92.2430   22.2470  -20.1640 C   0  0  0  0  0
  -92.9490   21.1600  -19.5200 O   0  0  0  0  0
  -93.0140   22.6020  -21.4360 C   0  0  0  0  0
  -92.4130   23.6570  -22.1870 O   0  0  0  0  0
  -91.2071   21.9315  -20.4084 H   0  0  0  0  0
  -92.1891   23.1202  -19.4807 H   0  0  0  0  0
  -92.4763   20.9327  -18.7304 H   0  0  0  0  0
  -94.0513   22.8976  -21.1687 H   0  0  0  0  0
  -93.0924   21.7020  -22.0831 H   0  0  0  0  0
  -92.9457   23.8153  -22.9552 H   0  0  0  0  0
  1  2  1  0  0  0
  1  3  1  0  0  0
  1  5  1  0  0  0
  1  6  1  0  0  0
  2  7  1  0  0  0
  3  4  1  0  0  0
  3  8  1  0  0  0
  3  9  1  0  0  0
  4 10  1  0  0  0
M  END
$$$$
