@<TRIPOS>MOLECULE
EDO_3_A_410
 10 9 0 0 0
SMALL
NO_CHARGES

@<TRIPOS>ATOM
      1 C1        -69.8630   10.0600   46.2210 C.3    410  EDO410      0.0000
      2 O1        -68.9480    8.9670   46.3560 O.3    410  EDO410      0.0000
      3 C2        -69.5950   11.0630   47.3310 C.3    410  EDO410      0.0000
      4 O2        -68.1770   11.2200   47.4110 O.3    410  EDO410      0.0000
      5 H         -70.9046    9.6819   46.2655 H      410  EDO410      0.0000
      6 H         -69.7222   10.5309   45.2252 H      410  EDO410      0.0000
      7 H         -68.0900    9.3448   46.5112 H      410  EDO410      0.0000
      8 H         -69.9833   10.6856   48.3006 H      410  EDO410      0.0000
      9 H         -70.0832   12.0366   47.1176 H      410  EDO410      0.0000
     10 H         -67.9869   11.8329   48.1085 H      410  EDO410      0.0000
@<TRIPOS>BOND
     1     1     2    1
     2     1     3    1
     3     1     5    1
     4     1     6    1
     5     2     7    1
     6     3     4    1
     7     3     8    1
     8     3     9    1
     9     4    10    1

