EDO_1_B_403
  -ISIS-            3D

 10  9  0  0  0  0  0  0  0  0  1 V2000
  -48.5370   39.5750  -20.1640 C   0  0  0  0  0
  -47.2430   39.5060  -19.5200 O   0  0  0  0  0
  -48.4590   38.7290  -21.4360 C   0  0  0  0  0
  -49.6730   38.7230  -22.1870 O   0  0  0  0  0
  -48.7806   40.6300  -20.4089 H   0  0  0  0  0
  -49.3207   39.1859  -19.4809 H   0  0  0  0  0
  -47.2820   40.0294  -18.7306 H   0  0  0  0  0
  -48.1973   37.6827  -21.1683 H   0  0  0  0  0
  -47.6399   39.1104  -22.0830 H   0  0  0  0  0
  -49.5442   38.1822  -22.9550 H   0  0  0  0  0
  1  2  1  0  0  0
  1  3  1  0  0  0
  1  5  1  0  0  0
  1  6  1  0  0  0
  2  7  1  0  0  0
  3  4  1  0  0  0
  3  8  1  0  0  0
  3  9  1  0  0  0
  4 10  1  0  0  0
M  END
$$$$
