EDO_2_B_407
  -ISIS-            3D

 10  9  0  0  0  0  0  0  0  0  1 V2000
  -93.4420   63.4000  -33.8910 C   0  0  0  0  0
  -94.7930   63.7500  -33.5600 O   0  0  0  0  0
  -93.3830   62.0070  -34.5300 C   0  0  0  0  0
  -93.0670   62.0410  -35.9360 O   0  0  0  0  0
  -92.8172   63.4338  -32.9730 H   0  0  0  0  0
  -93.0311   64.1654  -34.5807 H   0  0  0  0  0
  -95.0057   63.3690  -32.7183 H   0  0  0  0  0
  -94.3356   61.4572  -34.3790 H   0  0  0  0  0
  -92.5989   61.4054  -34.0241 H   0  0  0  0  0
  -93.8005   62.4404  -36.3853 H   0  0  0  0  0
  1  2  1  0  0  0
  1  3  1  0  0  0
  1  5  1  0  0  0
  1  6  1  0  0  0
  2  7  1  0  0  0
  3  4  1  0  0  0
  3  8  1  0  0  0
  3  9  1  0  0  0
  4 10  1  0  0  0
M  END
$$$$
