EDO_1_B_410
  -ISIS-            3D

 10  9  0  0  0  0  0  0  0  0  1 V2000
  -40.3650   50.1630  -31.5460 C   0  0  0  0  0
  -39.8130   51.0600  -30.5660 O   0  0  0  0  0
  -39.3010   49.2300  -32.1160 C   0  0  0  0  0
  -38.5030   48.6710  -31.0640 O   0  0  0  0  0
  -40.8396   50.7555  -32.3550 H   0  0  0  0  0
  -41.1713   49.5684  -31.0666 H   0  0  0  0  0
  -39.2021   50.5431  -30.0526 H   0  0  0  0  0
  -38.6412   49.7941  -32.8093 H   0  0  0  0  0
  -39.7766   48.4155  -32.7020 H   0  0  0  0  0
  -37.8555   48.0999  -31.4551 H   0  0  0  0  0
  1  2  1  0  0  0
  1  3  1  0  0  0
  1  5  1  0  0  0
  1  6  1  0  0  0
  2  7  1  0  0  0
  3  4  1  0  0  0
  3  8  1  0  0  0
  3  9  1  0  0  0
  4 10  1  0  0  0
M  END
$$$$
