@<TRIPOS>MOLECULE
EDO_2_A_401
 10 9 0 0 0
SMALL
NO_CHARGES

@<TRIPOS>ATOM
      1 C1        -74.1820   55.3970   15.7480 C.3    401  EDO401      0.0000
      2 O1        -72.8960   55.9300   15.4430 O.3    401  EDO401      0.0000
      3 C2        -74.6350   54.7590   14.4570 C.3    401  EDO401      0.0000
      4 O2        -73.9520   53.5190   14.2550 O.3    401  EDO401      0.0000
      5 H         -74.8711   56.2054   16.0709 H      401  EDO401      0.0000
      6 H         -74.1044   54.6577   16.5707 H      401  EDO401      0.0000
      7 H         -72.9902   56.8401   15.1925 H      401  EDO401      0.0000
      8 H         -74.4697   55.4346   13.5911 H      401  EDO401      0.0000
      9 H         -75.7263   54.5572   14.5053 H      401  EDO401      0.0000
     10 H         -74.1586   53.1998   13.3861 H      401  EDO401      0.0000
@<TRIPOS>BOND
     1     1     2    1
     2     1     3    1
     3     1     5    1
     4     1     6    1
     5     2     7    1
     6     3     4    1
     7     3     8    1
     8     3     9    1
     9     4    10    1

