EDO_3_A_413
  -ISIS-            3D

 10  9  0  0  0  0  0  0  0  0  1 V2000
  -82.1420   18.3210   34.8300 C   0  0  0  0  0
  -81.9810   18.4630   36.2610 O   0  0  0  0  0
  -81.5670   17.0190   34.2670 C   0  0  0  0  0
  -82.6080   16.1750   33.7600 O   0  0  0  0  0
  -81.6462   19.1843   34.3367 H   0  0  0  0  0
  -83.2210   18.3980   34.5778 H   0  0  0  0  0
  -82.4664   19.2290   36.5376 H   0  0  0  0  0
  -80.9992   16.4789   35.0535 H   0  0  0  0  0
  -80.8526   17.2416   33.4462 H   0  0  0  0  0
  -82.2244   15.3410   33.5232 H   0  0  0  0  0
  1  2  1  0  0  0
  1  3  1  0  0  0
  1  5  1  0  0  0
  1  6  1  0  0  0
  2  7  1  0  0  0
  3  4  1  0  0  0
  3  8  1  0  0  0
  3  9  1  0  0  0
  4 10  1  0  0  0
M  END
$$$$
