@<TRIPOS>MOLECULE
EDO_3_A_402
 10 9 0 0 0
SMALL
NO_CHARGES

@<TRIPOS>ATOM
      1 C1        -95.3670   45.3390    0.0750 C.3    402  EDO402      0.0000
      2 O1        -96.3580   44.8880    1.0400 O.3    402  EDO402      0.0000
      3 C2        -95.8830   46.3000   -0.9900 C.3    402  EDO402      0.0000
      4 O2        -97.1600   46.8600   -0.5890 O.3    402  EDO402      0.0000
      5 H         -94.9070   44.4533   -0.4128 H      402  EDO402      0.0000
      6 H         -94.5491   45.8399    0.6370 H      402  EDO402      0.0000
      7 H         -95.9247   44.3221    1.6646 H      402  EDO402      0.0000
      8 H         -96.0255   45.7647   -1.9521 H      402  EDO402      0.0000
      9 H         -95.1621   47.1218   -1.1776 H      402  EDO402      0.0000
     10 H         -97.5362   46.2643    0.0490 H      402  EDO402      0.0000
@<TRIPOS>BOND
     1     1     2    1
     2     1     3    1
     3     1     5    1
     4     1     6    1
     5     2     7    1
     6     3     4    1
     7     3     8    1
     8     3     9    1
     9     4    10    1

