@<TRIPOS>MOLECULE
EDO_3_A_414
 10 9 0 0 0
SMALL
NO_CHARGES

@<TRIPOS>ATOM
      1 C1        -81.5830    7.6600   32.4220 C.3    414  EDO414      0.0000
      2 O1        -81.2750    6.9740   31.2040 O.3    414  EDO414      0.0000
      3 C2        -82.6580    8.7290   32.1980 C.3    414  EDO414      0.0000
      4 O2        -83.7050    8.2380   31.3460 O.3    414  EDO414      0.0000
      5 H         -80.6618    8.1189   32.8385 H      414  EDO414      0.0000
      6 H         -81.9491    6.9220   33.1677 H      414  EDO414      0.0000
      7 H         -80.7060    6.2429   31.4072 H      414  EDO414      0.0000
      8 H         -82.1954    9.6207   31.7229 H      414  EDO414      0.0000
      9 H         -83.0867    9.0580   33.1678 H      414  EDO414      0.0000
     10 H         -84.2510    8.9702   31.0904 H      414  EDO414      0.0000
@<TRIPOS>BOND
     1     1     2    1
     2     1     3    1
     3     1     5    1
     4     1     6    1
     5     2     7    1
     6     3     4    1
     7     3     8    1
     8     3     9    1
     9     4    10    1

