@<TRIPOS>MOLECULE
EDO_3_A_409
 10 9 0 0 0
SMALL
NO_CHARGES

@<TRIPOS>ATOM
      1 C1        -71.9720   29.5790   29.3830 C.3    409  EDO409      0.0000
      2 O1        -72.7310   30.6130   30.0160 O.3    409  EDO409      0.0000
      3 C2        -72.6030   28.2510   29.7800 C.3    409  EDO409      0.0000
      4 O2        -73.8080   27.9870   29.0430 O.3    409  EDO409      0.0000
      5 H         -70.9121   29.6298   29.7109 H      409  EDO409      0.0000
      6 H         -71.9893   29.7207   28.2832 H      409  EDO409      0.0000
      7 H         -72.3047   30.8497   30.8292 H      409  EDO409      0.0000
      8 H         -72.8139   28.2150   30.8694 H      409  EDO409      0.0000
      9 H         -71.8899   27.4264   29.5703 H      409  EDO409      0.0000
     10 H         -74.3710   28.7417   29.1642 H      409  EDO409      0.0000
@<TRIPOS>BOND
     1     1     2    1
     2     1     3    1
     3     1     5    1
     4     1     6    1
     5     2     7    1
     6     3     4    1
     7     3     8    1
     8     3     9    1
     9     4    10    1

