@<TRIPOS>MOLECULE
EDO_2_A_404
 10 9 0 0 0
SMALL
NO_CHARGES

@<TRIPOS>ATOM
      1 C1       -121.0020   42.3900   36.0650 C.3    404  EDO404      0.0000
      2 O1       -120.4730   42.3980   37.4040 O.3    404  EDO404      0.0000
      3 C2       -121.1640   41.0080   35.4370 C.3    404  EDO404      0.0000
      4 O2       -121.9020   40.1440   36.3270 O.3    404  EDO404      0.0000
      5 H        -120.3430   43.0144   35.4263 H      404  EDO404      0.0000
      6 H        -121.9886   42.9007   36.0809 H      404  EDO404      0.0000
      7 H        -120.9088   41.6865   37.8587 H      404  EDO404      0.0000
      8 H        -120.1656   40.5624   35.2414 H      404  EDO404      0.0000
      9 H        -121.6932   41.0844   34.4637 H      404  EDO404      0.0000
     10 H        -121.9956   39.2994   35.9072 H      404  EDO404      0.0000
@<TRIPOS>BOND
     1     1     2    1
     2     1     3    1
     3     1     5    1
     4     1     6    1
     5     2     7    1
     6     3     4    1
     7     3     8    1
     8     3     9    1
     9     4    10    1

