EDO_2_B_401
  -ISIS-            3D

 10  9  0  0  0  0  0  0  0  0  1 V2000
  -87.4790   45.2770  -14.9390 C   0  0  0  0  0
  -86.4430   46.1900  -14.5000 O   0  0  0  0  0
  -86.9350   44.1640  -15.8530 C   0  0  0  0  0
  -87.2830   42.8390  -15.3850 O   0  0  0  0  0
  -88.2505   45.8619  -15.4818 H   0  0  0  0  0
  -87.9879   44.8411  -14.0535 H   0  0  0  0  0
  -86.1237   45.8958  -13.6571 H   0  0  0  0  0
  -85.8315   44.2424  -15.9488 H   0  0  0  0  0
  -87.3436   44.2892  -16.8773 H   0  0  0  0  0
  -86.6188   42.5576  -14.7696 H   0  0  0  0  0
  1  2  1  0  0  0
  1  3  1  0  0  0
  1  5  1  0  0  0
  1  6  1  0  0  0
  2  7  1  0  0  0
  3  4  1  0  0  0
  3  8  1  0  0  0
  3  9  1  0  0  0
  4 10  1  0  0  0
M  END
$$$$
