@<TRIPOS>MOLECULE
EDO_3_A_403
 10 9 0 0 0
SMALL
NO_CHARGES

@<TRIPOS>ATOM
      1 C1        -91.0180   21.4580   39.0470 C.3    403  EDO403      0.0000
      2 O1        -91.6370   21.3010   37.7690 O.3    403  EDO403      0.0000
      3 C2        -89.8220   22.3850   38.9140 C.3    403  EDO403      0.0000
      4 O2        -88.9330   22.1540   40.0060 O.3    403  EDO403      0.0000
      5 H         -90.6921   20.4603   39.4117 H      403  EDO403      0.0000
      6 H         -91.7498   21.8606   39.7785 H      403  EDO403      0.0000
      7 H         -92.3343   20.6640   37.8518 H      403  EDO403      0.0000
      8 H         -90.1333   23.4498   38.8767 H      403  EDO403      0.0000
      9 H         -89.2731   22.1702   37.9735 H      403  EDO403      0.0000
     10 H         -89.2185   22.6794   40.7420 H      403  EDO403      0.0000
@<TRIPOS>BOND
     1     1     2    1
     2     1     3    1
     3     1     5    1
     4     1     6    1
     5     2     7    1
     6     3     4    1
     7     3     8    1
     8     3     9    1
     9     4    10    1

