EDO_2_B_402
  -ISIS-            3D

 10  9  0  0  0  0  0  0  0  0  1 V2000
  -92.0780   32.2300   -0.0920 C   0  0  0  0  0
  -93.2250   32.2780   -0.9660 O   0  0  0  0  0
  -92.1950   31.2860    1.1070 C   0  0  0  0  0
  -92.7870   30.0280    0.7240 O   0  0  0  0  0
  -91.8613   33.2597    0.2612 H   0  0  0  0  0
  -91.2017   31.9252   -0.7032 H   0  0  0  0  0
  -93.6500   31.4312   -0.8887 H   0  0  0  0  0
  -92.8469   31.7495    1.8769 H   0  0  0  0  0
  -91.2056   31.1195    1.5827 H   0  0  0  0  0
  -92.0933   29.4458    0.4432 H   0  0  0  0  0
  1  2  1  0  0  0
  1  3  1  0  0  0
  1  5  1  0  0  0
  1  6  1  0  0  0
  2  7  1  0  0  0
  3  4  1  0  0  0
  3  8  1  0  0  0
  3  9  1  0  0  0
  4 10  1  0  0  0
M  END
$$$$
