EDO_3_B_402
  -ISIS-            3D

 10  9  0  0  0  0  0  0  0  0  1 V2000
  -57.2650   34.7260   -0.0920 C   0  0  0  0  0
  -56.7340   33.7090   -0.9660 O   0  0  0  0  0
  -56.3890   35.0970    1.1070 C   0  0  0  0  0
  -55.0030   35.2130    0.7240 O   0  0  0  0  0
  -58.2655   34.3997    0.2607 H   0  0  0  0  0
  -57.4388   35.6378   -0.7029 H   0  0  0  0  0
  -55.7956   33.8578   -0.9937 H   0  0  0  0  0
  -56.4785   34.3110    1.8870 H   0  0  0  0  0
  -56.7359   36.0502    1.5588 H   0  0  0  0  0
  -54.5021   35.4429    1.4951 H   0  0  0  0  0
  1  2  1  0  0  0
  1  3  1  0  0  0
  1  5  1  0  0  0
  1  6  1  0  0  0
  2  7  1  0  0  0
  3  4  1  0  0  0
  3  8  1  0  0  0
  3  9  1  0  0  0
  4 10  1  0  0  0
M  END
$$$$
