EDO_2_B_410
  -ISIS-            3D

 10  9  0  0  0  0  0  0  0  0  1 V2000
  -98.6520   70.5440  -31.5460 C   0  0  0  0  0
  -99.7050   70.5740  -30.5660 O   0  0  0  0  0
  -98.3760   71.9320  -32.1160 C   0  0  0  0  0
  -98.2910   72.9020  -31.0640 O   0  0  0  0  0
  -98.9227   69.8429  -32.3637 H   0  0  0  0  0
  -97.7297   70.1486  -31.0690 H   0  0  0  0  0
  -99.8326   69.6923  -30.2424 H   0  0  0  0  0
  -99.1908   72.2283  -32.8099 H   0  0  0  0  0
  -97.4323   71.9391  -32.6991 H   0  0  0  0  0
  -98.9816   72.6849  -30.4475 H   0  0  0  0  0
  1  2  1  0  0  0
  1  3  1  0  0  0
  1  5  1  0  0  0
  1  6  1  0  0  0
  2  7  1  0  0  0
  3  4  1  0  0  0
  3  8  1  0  0  0
  3  9  1  0  0  0
  4 10  1  0  0  0
M  END
$$$$
