EDO_1_A_414
  -ISIS-            3D

 10  9  0  0  0  0  0  0  0  0  1 V2000
  -41.2340   56.1000   32.4220 C   0  0  0  0  0
  -40.7940   56.7100   31.2040 O   0  0  0  0  0
  -41.6230   54.6340   32.1980 C   0  0  0  0  0
  -40.6740   53.9730   31.3460 O   0  0  0  0  0
  -42.0798   56.6705   32.8621 H   0  0  0  0  0
  -40.4003   56.1526   33.1533 H   0  0  0  0  0
  -41.5304   57.1608   30.8117 H   0  0  0  0  0
  -42.6244   54.5777   31.7206 H   0  0  0  0  0
  -41.6919   54.0917   33.1632 H   0  0  0  0  0
  -40.3158   54.6402   30.7695 H   0  0  0  0  0
  1  2  1  0  0  0
  1  3  1  0  0  0
  1  5  1  0  0  0
  1  6  1  0  0  0
  2  7  1  0  0  0
  3  4  1  0  0  0
  3  8  1  0  0  0
  3  9  1  0  0  0
  4 10  1  0  0  0
M  END
$$$$
