EDO_3_A_410
  -ISIS-            3D

 10  9  0  0  0  0  0  0  0  0  1 V2000
  -69.8630   10.0600   46.2210 C   0  0  0  0  0
  -68.9480    8.9670   46.3560 O   0  0  0  0  0
  -69.5950   11.0630   47.3310 C   0  0  0  0  0
  -68.1770   11.2200   47.4110 O   0  0  0  0  0
  -70.9046    9.6819   46.2655 H   0  0  0  0  0
  -69.7222   10.5309   45.2252 H   0  0  0  0  0
  -68.0900    9.3448   46.5112 H   0  0  0  0  0
  -69.9833   10.6856   48.3006 H   0  0  0  0  0
  -70.0832   12.0366   47.1176 H   0  0  0  0  0
  -67.9869   11.8329   48.1085 H   0  0  0  0  0
  1  2  1  0  0  0
  1  3  1  0  0  0
  1  5  1  0  0  0
  1  6  1  0  0  0
  2  7  1  0  0  0
  3  4  1  0  0  0
  3  8  1  0  0  0
  3  9  1  0  0  0
  4 10  1  0  0  0
M  END
$$$$
