@<TRIPOS>MOLECULE
EDO_1_B_404
 10 9 0 0 0
SMALL
NO_CHARGES

@<TRIPOS>ATOM
      1 C1        -46.7500   46.6840  -12.2340 C.3    404  EDO404      0.0000
      2 O1        -45.9060   45.9300  -11.3530 O.3    404  EDO404      0.0000
      3 C2        -47.6730   45.7930  -13.0580 C.3    404  EDO404      0.0000
      4 O2        -46.8960   44.9940  -13.9610 O.3    404  EDO404      0.0000
      5 H         -46.1192   47.3091  -12.9007 H      404  EDO404      0.0000
      6 H         -47.3543   47.3844  -11.6205 H      404  EDO404      0.0000
      7 H         -45.4818   45.2716  -11.8902 H      404  EDO404      0.0000
      8 H         -48.3843   46.4171  -13.6395 H      404  EDO404      0.0000
      9 H         -48.2715   45.1349  -12.3933 H      404  EDO404      0.0000
     10 H         -47.4905   44.4567  -14.4674 H      404  EDO404      0.0000
@<TRIPOS>BOND
     1     1     2    1
     2     1     3    1
     3     1     5    1
     4     1     6    1
     5     2     7    1
     6     3     4    1
     7     3     8    1
     8     3     9    1
     9     4    10    1

