@<TRIPOS>MOLECULE
EDO_3_A_408
 10 9 0 0 0
SMALL
NO_CHARGES

@<TRIPOS>ATOM
      1 C1        -58.4050    7.1780   44.6270 C.3    408  EDO408      0.0000
      2 O1        -58.1230    8.2470   45.5200 O.3    408  EDO408      0.0000
      3 C2        -57.1190    6.8440   43.8930 C.3    408  EDO408      0.0000
      4 O2        -56.5600    8.0610   43.4070 O.3    408  EDO408      0.0000
      5 H         -59.1941    7.4884   43.9096 H      408  EDO408      0.0000
      6 H         -58.7805    6.2963   45.1872 H      408  EDO408      0.0000
      7 H         -58.9224    8.4690   45.9799 H      408  EDO408      0.0000
      8 H         -57.3078    6.1552   43.0445 H      408  EDO408      0.0000
      9 H         -56.3922    6.3490   44.5710 H      408  EDO408      0.0000
     10 H         -56.5859    8.6798   44.1276 H      408  EDO408      0.0000
@<TRIPOS>BOND
     1     1     2    1
     2     1     3    1
     3     1     5    1
     4     1     6    1
     5     2     7    1
     6     3     4    1
     7     3     8    1
     8     3     9    1
     9     4    10    1

