@<TRIPOS>MOLECULE
EDO_1_A_403
 10 9 0 0 0
SMALL
NO_CHARGES

@<TRIPOS>ATOM
      1 C1        -48.4660   41.0300   39.0470 C.3    403  EDO403      0.0000
      2 O1        -48.0200   40.5720   37.7690 O.3    403  EDO403      0.0000
      3 C2        -49.8670   41.6020   38.9140 C.3    403  EDO403      0.0000
      4 O2        -50.1120   42.4870   40.0060 O.3    403  EDO403      0.0000
      5 H         -47.7570   41.7951   39.4293 H      403  EDO403      0.0000
      6 H         -48.4539   40.1844   39.7650 H      403  EDO403      0.0000
      7 H         -47.7093   41.3183   37.2737 H      403  EDO403      0.0000
      8 H         -50.6333   40.7996   38.8790 H      403  EDO403      0.0000
      9 H         -49.9609   42.1857   37.9747 H      403  EDO403      0.0000
     10 H         -50.3571   41.9699   40.7623 H      403  EDO403      0.0000
@<TRIPOS>BOND
     1     1     2    1
     2     1     3    1
     3     1     5    1
     4     1     6    1
     5     2     7    1
     6     3     4    1
     7     3     8    1
     8     3     9    1
     9     4    10    1

