EDO_3_B_407
  -ISIS-            3D

 10  9  0  0  0  0  0  0  0  0  1 V2000
  -83.5770   17.9600  -33.8910 C   0  0  0  0  0
  -83.2050   16.6140  -33.5600 O   0  0  0  0  0
  -82.4000   18.7080  -34.5300 C   0  0  0  0  0
  -82.5880   18.9640  -35.9360 O   0  0  0  0  0
  -83.9189   18.4840  -32.9730 H   0  0  0  0  0
  -84.4452   17.9335  -34.5808 H   0  0  0  0  0
  -82.7679   16.6202  -32.7186 H   0  0  0  0  0
  -81.4470   18.1591  -34.3782 H   0  0  0  0  0
  -82.2727   19.6883  -34.0245 H   0  0  0  0  0
  -82.5664   18.1289  -36.3850 H   0  0  0  0  0
  1  2  1  0  0  0
  1  3  1  0  0  0
  1  5  1  0  0  0
  1  6  1  0  0  0
  2  7  1  0  0  0
  3  4  1  0  0  0
  3  8  1  0  0  0
  3  9  1  0  0  0
  4 10  1  0  0  0
M  END
$$$$
