EDO_3_A_403
  -ISIS-            3D

 10  9  0  0  0  0  0  0  0  0  1 V2000
  -91.0180   21.4580   39.0470 C   0  0  0  0  0
  -91.6370   21.3010   37.7690 O   0  0  0  0  0
  -89.8220   22.3850   38.9140 C   0  0  0  0  0
  -88.9330   22.1540   40.0060 O   0  0  0  0  0
  -90.6921   20.4603   39.4117 H   0  0  0  0  0
  -91.7498   21.8606   39.7785 H   0  0  0  0  0
  -92.3343   20.6640   37.8518 H   0  0  0  0  0
  -90.1333   23.4498   38.8767 H   0  0  0  0  0
  -89.2731   22.1702   37.9735 H   0  0  0  0  0
  -89.2185   22.6794   40.7420 H   0  0  0  0  0
  1  2  1  0  0  0
  1  3  1  0  0  0
  1  5  1  0  0  0
  1  6  1  0  0  0
  2  7  1  0  0  0
  3  4  1  0  0  0
  3  8  1  0  0  0
  3  9  1  0  0  0
  4 10  1  0  0  0
M  END
$$$$
