@<TRIPOS>MOLECULE
EDO_2_B_412
 10 9 0 0 0
SMALL
NO_CHARGES

@<TRIPOS>ATOM
      1 C1        -91.3430   77.2930  -30.8820 C.3    412  EDO412      0.0000
      2 O1        -91.3950   78.0210  -29.6450 O.3    412  EDO412      0.0000
      3 C2        -92.6510   76.5390  -31.1180 C.3    412  EDO412      0.0000
      4 O2        -93.7570   77.4540  -31.0310 O.3    412  EDO412      0.0000
      5 H         -90.4887   76.5842  -30.8585 H      412  EDO412      0.0000
      6 H         -91.1630   78.0009  -31.7191 H      412  EDO412      0.0000
      7 H         -90.6616   78.6216  -29.6215 H      412  EDO412      0.0000
      8 H         -92.7694   75.7396  -30.3559 H      412  EDO412      0.0000
      9 H         -92.6463   76.0533  -32.1162 H      412  EDO412      0.0000
     10 H         -94.5583   76.9488  -30.9873 H      412  EDO412      0.0000
@<TRIPOS>BOND
     1     1     2    1
     2     1     3    1
     3     1     5    1
     4     1     6    1
     5     2     7    1
     6     3     4    1
     7     3     8    1
     8     3     9    1
     9     4    10    1

