@<TRIPOS>MOLECULE
EDO_2_B_407
 10 9 0 0 0
SMALL
NO_CHARGES

@<TRIPOS>ATOM
      1 C1        -93.4420   63.4000  -33.8910 C.3    407  EDO407      0.0000
      2 O1        -94.7930   63.7500  -33.5600 O.3    407  EDO407      0.0000
      3 C2        -93.3830   62.0070  -34.5300 C.3    407  EDO407      0.0000
      4 O2        -93.0670   62.0410  -35.9360 O.3    407  EDO407      0.0000
      5 H         -92.8172   63.4338  -32.9730 H      407  EDO407      0.0000
      6 H         -93.0311   64.1654  -34.5807 H      407  EDO407      0.0000
      7 H         -95.0057   63.3690  -32.7183 H      407  EDO407      0.0000
      8 H         -94.3356   61.4572  -34.3790 H      407  EDO407      0.0000
      9 H         -92.5989   61.4054  -34.0241 H      407  EDO407      0.0000
     10 H         -93.8005   62.4404  -36.3853 H      407  EDO407      0.0000
@<TRIPOS>BOND
     1     1     2    1
     2     1     3    1
     3     1     5    1
     4     1     6    1
     5     2     7    1
     6     3     4    1
     7     3     8    1
     8     3     9    1
     9     4    10    1

