K36_1_A_401
  -ISIS-            3D

 60 61  0  0  0  0  0  0  0  0  1 V2000
    7.0790   26.1230   -8.7650 C   0  0  0  0  0
    6.9480   26.3190  -10.3250 O   0  0  0  0  0
    5.8630   27.1600  -10.7150 C   0  0  0  0  0
    5.0160   26.7400  -11.4540 O   0  0  0  0  0
    7.8220   24.8970   -8.1500 C   0  0  0  0  0
    7.1560   23.7290   -7.7360 C   0  0  0  0  0
    7.8610   22.6310   -7.1880 C   0  0  0  0  0
    9.2640   22.6600   -7.0180 C   0  0  0  0  0
    9.9470   23.8140   -7.3920 C   0  0  0  0  0
    9.2400   24.9090   -7.9510 C   0  0  0  0  0
    5.7130   28.4230  -10.1800 N   0  0  0  0  0
    4.3750   29.0900  -10.2270 C   0  0  0  0  0
    4.0180   29.6150  -11.7280 C   0  0  0  0  0
    4.9340   29.9440  -12.4220 O   0  0  0  0  0
    4.4490   30.3250   -9.3170 C   0  0  0  0  0
    4.4030   30.1020   -7.8180 C   0  0  0  0  0
    4.2780   31.4710   -7.0480 C   0  0  0  0  0
    3.2620   29.1700   -7.4260 C   0  0  0  0  0
    2.6960   29.7820  -12.2540 N   0  0  0  0  0
    2.4610   30.2570  -13.5450 C   0  0  0  0  0
    1.2410   31.1210  -13.5960 C   0  0  0  0  0
    1.0510   31.7630  -14.8500 O   0  0  0  0  0
    2.2570   29.0530  -14.6680 C   0  0  0  0  0
    3.2100   27.8210  -14.5210 C   0  0  0  0  0
    4.6610   28.0840  -14.9960 C   0  0  0  0  0
    4.7900   27.4610  -16.4140 C   0  0  0  0  0
    3.6630   26.5310  -16.5010 N   0  0  0  0  0
    2.7250   26.6810  -15.4540 C   0  0  0  0  0
    1.7170   26.0280  -15.3160 O   0  0  0  0  0
    6.0553   26.1284   -8.3325 H   0  0  0  0  0
    7.5694   27.0322   -8.3560 H   0  0  0  0  0
    6.0603   23.6589   -7.8474 H   0  0  0  0  0
    7.3017   21.7283   -6.8867 H   0  0  0  0  0
    9.7998   21.7943   -6.5941 H   0  0  0  0  0
   11.0408   23.8753   -7.2605 H   0  0  0  0  0
    9.8112   25.8061   -8.2471 H   0  0  0  0  0
    6.5191   28.8734   -9.7302 H   0  0  0  0  0
    3.5628   28.3979   -9.9129 H   0  0  0  0  0
    3.5810   30.9754   -9.5791 H   0  0  0  0  0
    5.3517   30.9250   -9.5778 H   0  0  0  0  0
    5.3624   29.6231   -7.5027 H   0  0  0  0  0
    4.3088   31.3209   -5.9456 H   0  0  0  0  0
    3.3244   31.9922   -7.2879 H   0  0  0  0  0
    5.1121   32.1603   -7.3088 H   0  0  0  0  0
    3.1619   29.0983   -6.3198 H   0  0  0  0  0
    3.4187   28.1301   -7.7874 H   0  0  0  0  0
    2.2815   29.5220   -7.8178 H   0  0  0  0  0
    1.9022   29.5156  -11.6555 H   0  0  0  0  0
    3.3193   30.8791  -13.8924 H   0  0  0  0  0
    1.3180   31.9078  -12.8126 H   0  0  0  0  0
    0.3349   30.5249  -13.3507 H   0  0  0  0  0
    0.2541   32.2751  -14.8125 H   0  0  0  0  0
    2.3549   29.4852  -15.6902 H   0  0  0  0  0
    1.2087   28.6840  -14.5780 H   0  0  0  0  0
    3.1968   27.4537  -13.4695 H   0  0  0  0  0
    5.3736   27.5784  -14.3039 H   0  0  0  0  0
    4.9144   29.1666  -15.0071 H   0  0  0  0  0
    5.7704   26.9485  -16.5362 H   0  0  0  0  0
    4.7157   28.2530  -17.1933 H   0  0  0  0  0
    3.5400   25.8271  -17.2398 H   0  0  0  0  0
  1  2  1  0  0  0
  1  5  1  0  0  0
  1 30  1  0  0  0
  1 31  1  0  0  0
  2  3  1  0  0  0
  3  4  2  0  0  0
  3 11  1  0  0  0
  5  6  2  0  0  0
  5 10  1  0  0  0
  6  7  1  0  0  0
  6 32  1  0  0  0
  7  8  2  0  0  0
  7 33  1  0  0  0
  8  9  1  0  0  0
  8 34  1  0  0  0
  9 10  2  0  0  0
  9 35  1  0  0  0
 10 36  1  0  0  0
 11 12  1  0  0  0
 11 37  1  0  0  0
 12 13  1  0  0  0
 12 15  1  0  0  0
 12 38  1  0  0  0
 13 14  2  0  0  0
 13 19  1  0  0  0
 15 16  1  0  0  0
 15 39  1  0  0  0
 15 40  1  0  0  0
 16 17  1  0  0  0
 16 18  1  0  0  0
 16 41  1  0  0  0
 17 42  1  0  0  0
 17 43  1  0  0  0
 17 44  1  0  0  0
 18 45  1  0  0  0
 18 46  1  0  0  0
 18 47  1  0  0  0
 19 20  1  0  0  0
 19 48  1  0  0  0
 20 21  1  0  0  0
 20 23  1  0  0  0
 20 49  1  0  0  0
 21 22  1  0  0  0
 21 50  1  0  0  0
 21 51  1  0  0  0
 22 52  1  0  0  0
 23 24  1  0  0  0
 23 53  1  0  0  0
 23 54  1  0  0  0
 24 25  1  0  0  0
 24 28  1  0  0  0
 24 55  1  0  0  0
 25 26  1  0  0  0
 25 56  1  0  0  0
 25 57  1  0  0  0
 26 27  1  0  0  0
 26 58  1  0  0  0
 26 59  1  0  0  0
 27 28  1  0  0  0
 27 60  1  0  0  0
 28 29  2  0  0  0
M  END
$$$$
