@<TRIPOS>MOLECULE
K36_1_A_401
 60 61 0 0 0
SMALL
NO_CHARGES

@<TRIPOS>ATOM
      1 C7          7.0790   26.1230   -8.7650 C.3    401  K36401      0.0000
      2 O8          6.9480   26.3190  -10.3250 O.3    401  K36401      0.0000
      3 C9          5.8630   27.1600  -10.7150 C.2    401  K36401      0.0000
      4 O10         5.0160   26.7400  -11.4540 O.2    401  K36401      0.0000
      5 C1          7.8220   24.8970   -8.1500 C.ar   401  K36401      0.0000
      6 C2          7.1560   23.7290   -7.7360 C.ar   401  K36401      0.0000
      7 C3          7.8610   22.6310   -7.1880 C.ar   401  K36401      0.0000
      8 C4          9.2640   22.6600   -7.0180 C.ar   401  K36401      0.0000
      9 C5          9.9470   23.8140   -7.3920 C.ar   401  K36401      0.0000
     10 C6          9.2400   24.9090   -7.9510 C.ar   401  K36401      0.0000
     11 N11         5.7130   28.4230  -10.1800 N.am   401  K36401      0.0000
     12 C12         4.3750   29.0900  -10.2270 C.3    401  K36401      0.0000
     13 C17         4.0180   29.6150  -11.7280 C.2    401  K36401      0.0000
     14 O18         4.9340   29.9440  -12.4220 O.2    401  K36401      0.0000
     15 C13         4.4490   30.3250   -9.3170 C.3    401  K36401      0.0000
     16 C14         4.4030   30.1020   -7.8180 C.3    401  K36401      0.0000
     17 C15         4.2780   31.4710   -7.0480 C.3    401  K36401      0.0000
     18 C16         3.2620   29.1700   -7.4260 C.3    401  K36401      0.0000
     19 N19         2.6960   29.7820  -12.2540 N.am   401  K36401      0.0000
     20 C20         2.4610   30.2570  -13.5450 C.3    401  K36401      0.0000
     21 C21         1.2410   31.1210  -13.5960 C.3    401  K36401      0.0000
     22 O22         1.0510   31.7630  -14.8500 O.3    401  K36401      0.0000
     23 C24         2.2570   29.0530  -14.6680 C.3    401  K36401      0.0000
     24 C25         3.2100   27.8210  -14.5210 C.3    401  K36401      0.0000
     25 C26         4.6610   28.0840  -14.9960 C.3    401  K36401      0.0000
     26 C27         4.7900   27.4610  -16.4140 C.3    401  K36401      0.0000
     27 N28         3.6630   26.5310  -16.5010 N.am   401  K36401      0.0000
     28 C29         2.7250   26.6810  -15.4540 C.2    401  K36401      0.0000
     29 O30         1.7170   26.0280  -15.3160 O.2    401  K36401      0.0000
     30 H           6.0553   26.1284   -8.3325 H      401  K36401      0.0000
     31 H           7.5694   27.0322   -8.3560 H      401  K36401      0.0000
     32 H           6.0603   23.6589   -7.8474 H      401  K36401      0.0000
     33 H           7.3017   21.7283   -6.8867 H      401  K36401      0.0000
     34 H           9.7998   21.7943   -6.5941 H      401  K36401      0.0000
     35 H          11.0408   23.8753   -7.2605 H      401  K36401      0.0000
     36 H           9.8112   25.8061   -8.2471 H      401  K36401      0.0000
     37 H           6.5191   28.8734   -9.7302 H      401  K36401      0.0000
     38 H           3.5628   28.3979   -9.9129 H      401  K36401      0.0000
     39 H           3.5810   30.9754   -9.5791 H      401  K36401      0.0000
     40 H           5.3517   30.9250   -9.5778 H      401  K36401      0.0000
     41 H           5.3624   29.6231   -7.5027 H      401  K36401      0.0000
     42 H           4.3088   31.3209   -5.9456 H      401  K36401      0.0000
     43 H           3.3244   31.9922   -7.2879 H      401  K36401      0.0000
     44 H           5.1121   32.1603   -7.3088 H      401  K36401      0.0000
     45 H           3.1619   29.0983   -6.3198 H      401  K36401      0.0000
     46 H           3.4187   28.1301   -7.7874 H      401  K36401      0.0000
     47 H           2.2815   29.5220   -7.8178 H      401  K36401      0.0000
     48 H           1.9022   29.5156  -11.6555 H      401  K36401      0.0000
     49 H           3.3193   30.8791  -13.8924 H      401  K36401      0.0000
     50 H           1.3180   31.9078  -12.8126 H      401  K36401      0.0000
     51 H           0.3349   30.5249  -13.3507 H      401  K36401      0.0000
     52 H           0.2541   32.2751  -14.8125 H      401  K36401      0.0000
     53 H           2.3549   29.4852  -15.6902 H      401  K36401      0.0000
     54 H           1.2087   28.6840  -14.5780 H      401  K36401      0.0000
     55 H           3.1968   27.4537  -13.4695 H      401  K36401      0.0000
     56 H           5.3736   27.5784  -14.3039 H      401  K36401      0.0000
     57 H           4.9144   29.1666  -15.0071 H      401  K36401      0.0000
     58 H           5.7704   26.9485  -16.5362 H      401  K36401      0.0000
     59 H           4.7157   28.2530  -17.1933 H      401  K36401      0.0000
     60 H           3.5400   25.8271  -17.2398 H      401  K36401      0.0000
@<TRIPOS>BOND
     1     1     2    1
     2     1     5    1
     3     1    30    1
     4     1    31    1
     5     2     3    1
     6     3     4    2
     7     3    11    1
     8     5     6   ar
     9     5    10   ar
    10     6     7   ar
    11     6    32    1
    12     7     8   ar
    13     7    33    1
    14     8     9   ar
    15     8    34    1
    16     9    10   ar
    17     9    35    1
    18    10    36    1
    19    11    12    1
    20    11    37    1
    21    12    13    1
    22    12    15    1
    23    12    38    1
    24    13    14    2
    25    13    19    1
    26    15    16    1
    27    15    39    1
    28    15    40    1
    29    16    17    1
    30    16    18    1
    31    16    41    1
    32    17    42    1
    33    17    43    1
    34    17    44    1
    35    18    45    1
    36    18    46    1
    37    18    47    1
    38    19    20    1
    39    19    48    1
    40    20    21    1
    41    20    23    1
    42    20    49    1
    43    21    22    1
    44    21    50    1
    45    21    51    1
    46    22    52    1
    47    23    24    1
    48    23    53    1
    49    23    54    1
    50    24    25    1
    51    24    28    1
    52    24    55    1
    53    25    26    1
    54    25    56    1
    55    25    57    1
    56    26    27    1
    57    26    58    1
    58    26    59    1
    59    27    28    1
    60    27    60    1
    61    28    29    2

