K36_2_A_401
  -ISIS-            3D

 60 61  0  0  0  0  0  0  0  0  1 V2000
  -26.1630    6.9310  -44.5720 C   0  0  0  0  0
  -26.2670    7.1420  -43.0120 O   0  0  0  0  0
  -26.4530    8.5020  -42.6220 C   0  0  0  0  0
  -25.6660    9.0260  -41.8830 O   0  0  0  0  0
  -25.4720    5.6740  -45.1870 C   0  0  0  0  0
  -24.1280    5.6670  -45.6010 C   0  0  0  0  0
  -23.5300    4.5080  -46.1490 C   0  0  0  0  0
  -24.2560    3.3070  -46.3190 C   0  0  0  0  0
  -25.5970    3.2930  -45.9450 C   0  0  0  0  0
  -26.1920    4.4520  -45.3860 C   0  0  0  0  0
  -27.4720    9.2640  -43.1570 N   0  0  0  0  0
  -27.3800   10.7560  -43.1100 C   0  0  0  0  0
  -27.6560   11.3280  -41.6090 C   0  0  0  0  0
  -28.3990   10.6990  -40.9150 O   0  0  0  0  0
  -28.4870   11.3100  -44.0200 C   0  0  0  0  0
  -28.2710   11.2380  -45.5190 C   0  0  0  0  0
  -29.3940   12.0310  -46.2890 C   0  0  0  0  0
  -26.8930   11.7600  -45.9110 C   0  0  0  0  0
  -27.1400   12.5560  -41.0830 N   0  0  0  0  0
  -27.4340   12.9970  -39.7920 C   0  0  0  0  0
  -27.5720   14.4860  -39.7410 C   0  0  0  0  0
  -28.0330   14.9710  -38.4870 O   0  0  0  0  0
  -26.2890   12.5720  -38.6690 C   0  0  0  0  0
  -25.6990   11.1310  -38.8160 C   0  0  0  0  0
  -26.6520   10.0050  -38.3410 C   0  0  0  0  0
  -26.1770    9.5820  -36.9230 C   0  0  0  0  0
  -24.8080   10.0930  -36.8360 N   0  0  0  0  0
  -24.4690   10.9810  -37.8830 C   0  0  0  0  0
  -23.3990   11.5270  -38.0210 O   0  0  0  0  0
  -25.6558    7.8203  -45.0045 H   0  0  0  0  0
  -27.1956    6.9608  -44.9811 H   0  0  0  0  0
  -23.5195    6.5808  -45.4897 H   0  0  0  0  0
  -22.4688    4.5413  -46.4505 H   0  0  0  0  0
  -23.7741    2.4102  -46.7428 H   0  0  0  0  0
  -26.1969    2.3764  -46.0767 H   0  0  0  0  0
  -27.2544    4.4059  -45.0900 H   0  0  0  0  0
  -28.2652    8.7911  -43.6072 H   0  0  0  0  0
  -26.3744   11.1131  -43.4241 H   0  0  0  0  0
  -28.6163   12.3869  -43.7577 H   0  0  0  0  0
  -29.4578   10.8280  -43.7592 H   0  0  0  0  0
  -28.3361   10.1677  -45.8343 H   0  0  0  0  0
  -29.2779   11.9317  -47.3914 H   0  0  0  0  0
  -29.3701   13.1170  -46.0469 H   0  0  0  0  0
  -30.4079   11.6517  -46.0303 H   0  0  0  0  0
  -26.7810   11.8123  -47.0171 H   0  0  0  0  0
  -26.0710   11.1035  -45.5505 H   0  0  0  0  0
  -26.7069   12.7845  -45.5178 H   0  0  0  0  0
  -26.5119   13.1109  -41.6803 H   0  0  0  0  0
  -28.4011   12.5617  -39.4461 H   0  0  0  0  0
  -28.2752   14.8282  -40.5327 H   0  0  0  0  0
  -26.5996   14.9730  -39.9680 H   0  0  0  0  0
  -28.9609   14.7913  -38.4096 H   0  0  0  0  0
  -26.7120   12.7034  -37.6467 H   0  0  0  0  0
  -25.4451   13.2950  -38.7593 H   0  0  0  0  0
  -25.3741   10.9588  -39.8674 H   0  0  0  0  0
  -26.5697    9.1351  -39.0331 H   0  0  0  0  0
  -27.7165   10.3262  -38.3301 H   0  0  0  0  0
  -26.2234    8.4767  -36.8006 H   0  0  0  0  0
  -26.8257   10.0425  -36.1437 H   0  0  0  0  0
  -24.1363    9.8475  -36.0977 H   0  0  0  0  0
  1  2  1  0  0  0
  1  5  1  0  0  0
  1 30  1  0  0  0
  1 31  1  0  0  0
  2  3  1  0  0  0
  3  4  2  0  0  0
  3 11  1  0  0  0
  5  6  2  0  0  0
  5 10  1  0  0  0
  6  7  1  0  0  0
  6 32  1  0  0  0
  7  8  2  0  0  0
  7 33  1  0  0  0
  8  9  1  0  0  0
  8 34  1  0  0  0
  9 10  2  0  0  0
  9 35  1  0  0  0
 10 36  1  0  0  0
 11 12  1  0  0  0
 11 37  1  0  0  0
 12 13  1  0  0  0
 12 15  1  0  0  0
 12 38  1  0  0  0
 13 14  2  0  0  0
 13 19  1  0  0  0
 15 16  1  0  0  0
 15 39  1  0  0  0
 15 40  1  0  0  0
 16 17  1  0  0  0
 16 18  1  0  0  0
 16 41  1  0  0  0
 17 42  1  0  0  0
 17 43  1  0  0  0
 17 44  1  0  0  0
 18 45  1  0  0  0
 18 46  1  0  0  0
 18 47  1  0  0  0
 19 20  1  0  0  0
 19 48  1  0  0  0
 20 21  1  0  0  0
 20 23  1  0  0  0
 20 49  1  0  0  0
 21 22  1  0  0  0
 21 50  1  0  0  0
 21 51  1  0  0  0
 22 52  1  0  0  0
 23 24  1  0  0  0
 23 53  1  0  0  0
 23 54  1  0  0  0
 24 25  1  0  0  0
 24 28  1  0  0  0
 24 55  1  0  0  0
 25 26  1  0  0  0
 25 56  1  0  0  0
 25 57  1  0  0  0
 26 27  1  0  0  0
 26 58  1  0  0  0
 26 59  1  0  0  0
 27 28  1  0  0  0
 27 60  1  0  0  0
 28 29  2  0  0  0
M  END
$$$$
