4BL_1_A_201
  -ISIS-            3D

 21 22  0  0  0  0  0  0  0  0  1 V2000
  -39.1830  -38.3130   17.8140 C   0  0  0  0  0
  -39.1380  -38.1750   16.5030 N   0  0  0  0  0
  -40.4740  -38.5610   18.1820 C   0  0  0  0  0
  -40.3680  -38.2710   15.9740 C   0  0  0  0  0
  -38.0210  -38.3840   18.7860 C   0  0  0  0  0
  -41.2300  -38.5090   17.0100 C   0  0  0  0  0
  -40.8750  -38.1820   14.6490 C   0  0  0  0  0
  -38.1350  -38.3170   20.0290 O   0  0  0  0  0
  -42.5930  -38.6620   16.7890 C   0  0  0  0  0
  -36.9150  -38.6890   18.3260 O   0  0  0  0  0
  -42.2500  -38.3370   14.4410 C   0  0  0  0  0
  -43.0920  -38.5660   15.5060 C   0  0  0  0  0
  -42.8910  -38.2420   13.0500 C   0  0  0  0  0
  -38.0451  -37.9456   15.8048 H   0  0  0  0  0
  -40.8529  -38.7666   19.1923 H   0  0  0  0  0
  -40.1918  -37.9927   13.8054 H   0  0  0  0  0
  -43.2715  -38.8560   17.6365 H   0  0  0  0  0
  -44.1776  -38.6802   15.3459 H   0  0  0  0  0
  -43.9927  -38.3902   13.0727 H   0  0  0  0  0
  -42.4658  -39.0116   12.3682 H   0  0  0  0  0
  -42.6983  -37.2449   12.5957 H   0  0  0  0  0
  1  2  2  0  0  0
  1  3  1  0  0  0
  1  5  1  0  0  0
  2  4  1  0  0  0
  2 14  1  0  0  0
  3  6  2  0  0  0
  3 15  1  0  0  0
  4  6  1  0  0  0
  4  7  2  0  0  0
  5  8  2  0  0  0
  5 10  2  0  0  0
  6  9  1  0  0  0
  7 11  1  0  0  0
  7 16  1  0  0  0
  9 12  2  0  0  0
  9 17  1  0  0  0
 11 12  1  0  0  0
 11 13  1  0  0  0
 12 18  1  0  0  0
 13 19  1  0  0  0
 13 20  1  0  0  0
 13 21  1  0  0  0
M  END
$$$$
