@<TRIPOS>MOLECULE
DMS_2_A_403
 10 9 0 0 0
SMALL
NO_CHARGES

@<TRIPOS>ATOM
      1 S          -6.1520   -1.0130    6.3380 S.o    403  DMS403      0.0000
      2 O          -7.1050   -0.7260    7.4510 O.2    403  DMS403      0.0000
      3 C1         -7.0740   -0.8020    4.8110 C.3    403  DMS403      0.0000
      4 C2         -5.9390   -2.7630    6.2490 C.3    403  DMS403      0.0000
      5 H          -6.4503   -1.1178    3.9497 H      403  DMS403      0.0000
      6 H          -7.3393    0.2681    4.6899 H      403  DMS403      0.0000
      7 H          -8.0041   -1.4056    4.8374 H      403  DMS403      0.0000
      8 H          -5.3419   -3.0254    5.3515 H      403  DMS403      0.0000
      9 H          -6.9238   -3.2706    6.1986 H      403  DMS403      0.0000
     10 H          -5.3990   -3.1135    7.1523 H      403  DMS403      0.0000
@<TRIPOS>BOND
     1     1     2    2
     2     1     3    1
     3     1     4    1
     4     3     5    1
     5     3     6    1
     6     3     7    1
     7     4     8    1
     8     4     9    1
     9     4    10    1

