@<TRIPOS>MOLECULE
DMS_1_A_401
 10 9 0 0 0
SMALL
NO_CHARGES

@<TRIPOS>ATOM
      1 S           7.1000  -28.1480   21.4380 S.o    401  DMS401      0.0000
      2 O           6.2510  -27.3090   20.4780 O.2    401  DMS401      0.0000
      3 C1          7.9440  -27.0460   22.3830 C.3    401  DMS401      0.0000
      4 C2          5.9220  -28.7190   22.6390 C.3    401  DMS401      0.0000
      5 H           8.4512  -27.5677   23.2201 H      401  DMS401      0.0000
      6 H           7.2642  -26.2737   22.7979 H      401  DMS401      0.0000
      7 H           8.7169  -26.5414   21.7679 H      401  DMS401      0.0000
      8 H           6.4504  -29.2194   23.4762 H      401  DMS401      0.0000
      9 H           5.2371  -29.4496   22.1619 H      401  DMS401      0.0000
     10 H           5.3262  -27.8704   23.0336 H      401  DMS401      0.0000
@<TRIPOS>BOND
     1     1     2    2
     2     1     3    1
     3     1     4    1
     4     3     5    1
     5     3     6    1
     6     3     7    1
     7     4     8    1
     8     4     9    1
     9     4    10    1

