@<TRIPOS>MOLECULE
DMS_2_A_402
 10 9 0 0 0
SMALL
NO_CHARGES

@<TRIPOS>ATOM
      1 S          -7.4560  -21.5230  -29.4810 S.o    402  DMS402      0.0000
      2 O          -8.6250  -20.8040  -28.9070 O.2    402  DMS402      0.0000
      3 C1         -6.0200  -20.5200  -29.1770 C.3    402  DMS402      0.0000
      4 C2         -7.0680  -22.8400  -28.3660 C.3    402  DMS402      0.0000
      5 H          -5.1049  -21.0731  -29.4721 H      402  DMS402      0.0000
      6 H          -5.9586  -20.2485  -28.1032 H      402  DMS402      0.0000
      7 H          -6.0874  -19.5918  -29.7806 H      402  DMS402      0.0000
      8 H          -6.1257  -23.3344  -28.6793 H      402  DMS402      0.0000
      9 H          -7.8865  -23.5884  -28.3832 H      402  DMS402      0.0000
     10 H          -6.9560  -22.4525  -27.3327 H      402  DMS402      0.0000
@<TRIPOS>BOND
     1     1     2    2
     2     1     3    1
     3     1     4    1
     4     3     5    1
     5     3     6    1
     6     3     7    1
     7     4     8    1
     8     4     9    1
     9     4    10    1

