@<TRIPOS>MOLECULE
DMS_1_A_401
 10 9 0 0 0
SMALL
NO_CHARGES

@<TRIPOS>ATOM
      1 S           7.0800  -28.2350   22.3070 S.o    401  DMS401      0.0000
      2 O           7.6350  -27.1210   23.1420 O.2    401  DMS401      0.0000
      3 C1          6.0340  -27.4510   21.1050 C.3    401  DMS401      0.0000
      4 C2          5.8170  -28.9700   23.3100 C.3    401  DMS401      0.0000
      5 H           5.4594  -28.2198   20.5488 H      401  DMS401      0.0000
      6 H           6.6613  -26.8839   20.3872 H      401  DMS401      0.0000
      7 H           5.3306  -26.7515   21.6014 H      401  DMS401      0.0000
      8 H           5.2441  -29.7079   22.7118 H      401  DMS401      0.0000
      9 H           5.1265  -28.1922   23.6956 H      401  DMS401      0.0000
     10 H           6.2872  -29.4930   24.1678 H      401  DMS401      0.0000
@<TRIPOS>BOND
     1     1     2    2
     2     1     3    1
     3     1     4    1
     4     3     5    1
     5     3     6    1
     6     3     7    1
     7     4     8    1
     8     4     9    1
     9     4    10    1

