@<TRIPOS>MOLECULE
DMS_2_A_402
 10 9 0 0 0
SMALL
NO_CHARGES

@<TRIPOS>ATOM
      1 S          -7.4220  -21.0340  -29.7750 S.o    402  DMS402      0.0000
      2 O          -8.7180  -20.9050  -30.5240 O.2    402  DMS402      0.0000
      3 C1         -6.1280  -20.8180  -30.9700 C.3    402  DMS402      0.0000
      4 C2         -7.1740  -22.7640  -29.4460 C.3    402  DMS402      0.0000
      5 H          -5.1443  -21.0270  -30.5016 H      402  DMS402      0.0000
      6 H          -6.1358  -19.7701  -31.3336 H      402  DMS402      0.0000
      7 H          -6.2798  -21.5002  -31.8311 H      402  DMS402      0.0000
      8 H          -6.1657  -22.9236  -29.0118 H      402  DMS402      0.0000
      9 H          -7.2718  -23.3522  -30.3811 H      402  DMS402      0.0000
     10 H          -7.9365  -23.1115  -28.7191 H      402  DMS402      0.0000
@<TRIPOS>BOND
     1     1     2    2
     2     1     3    1
     3     1     4    1
     4     3     5    1
     5     3     6    1
     6     3     7    1
     7     4     8    1
     8     4     9    1
     9     4    10    1

