@<TRIPOS>MOLECULE
DMS_1_A_403
 10 9 0 0 0
SMALL
NO_CHARGES

@<TRIPOS>ATOM
      1 S           2.3390  -19.0060    8.1050 S.o    403  DMS403      0.0000
      2 O           3.5670  -18.6640    8.8950 O.2    403  DMS403      0.0000
      3 C1          0.9700  -18.2570    8.9590 C.3    403  DMS403      0.0000
      4 C2          1.9720  -20.6900    8.5460 C.3    403  DMS403      0.0000
      5 H           0.0142  -18.6100    8.5209 H      403  DMS403      0.0000
      6 H           1.0286  -17.1549    8.8483 H      403  DMS403      0.0000
      7 H           0.9996  -18.5128   10.0382 H      403  DMS403      0.0000
      8 H           0.9885  -20.9835    8.1255 H      403  DMS403      0.0000
      9 H           1.9523  -20.8068    9.6492 H      403  DMS403      0.0000
     10 H           2.7530  -21.3569    8.1268 H      403  DMS403      0.0000
@<TRIPOS>BOND
     1     1     2    2
     2     1     3    1
     3     1     4    1
     4     3     5    1
     5     3     6    1
     6     3     7    1
     7     4     8    1
     8     4     9    1
     9     4    10    1

