@<TRIPOS>MOLECULE
DMS_2_A_402
 10 9 0 0 0
SMALL
NO_CHARGES

@<TRIPOS>ATOM
      1 S          -6.1060   -1.1420    6.0870 S.o    402  DMS402      0.0000
      2 O          -6.7560   -0.6270    7.3360 O.2    402  DMS402      0.0000
      3 C1         -7.2990   -0.9560    4.7940 C.3    402  DMS402      0.0000
      4 C2         -6.1150   -2.9120    6.1800 C.3    402  DMS402      0.0000
      5 H          -6.9262   -1.4344    3.8653 H      402  DMS402      0.0000
      6 H          -7.4631    0.1235    4.5985 H      402  DMS402      0.0000
      7 H          -8.2632   -1.4198    5.0870 H      402  DMS402      0.0000
      8 H          -5.7664   -3.3417    5.2186 H      402  DMS402      0.0000
      9 H          -7.1368   -3.2824    6.4018 H      402  DMS402      0.0000
     10 H          -5.4293   -3.2400    6.9879 H      402  DMS402      0.0000
@<TRIPOS>BOND
     1     1     2    2
     2     1     3    1
     3     1     4    1
     4     3     5    1
     5     3     6    1
     6     3     7    1
     7     4     8    1
     8     4     9    1
     9     4    10    1

