@<TRIPOS>MOLECULE
DMS_1_A_401
 10 9 0 0 0
SMALL
NO_CHARGES

@<TRIPOS>ATOM
      1 S           6.7870  -27.8390   21.5000 S.o    401  DMS401      0.0000
      2 O           7.6250  -27.0370   22.4610 O.2    401  DMS401      0.0000
      3 C1          5.3740  -28.3910   22.4370 C.3    401  DMS401      0.0000
      4 C2          5.9510  -26.6860   20.4740 C.3    401  DMS401      0.0000
      5 H           4.6399  -28.8749   21.7608 H      401  DMS401      0.0000
      6 H           4.8937  -27.5345   22.9535 H      401  DMS401      0.0000
      7 H           5.7042  -29.1305   23.1947 H      401  DMS401      0.0000
      8 H           5.2056  -27.2119   19.8431 H      401  DMS401      0.0000
      9 H           6.6854  -26.1831   19.8122 H      401  DMS401      0.0000
     10 H           5.4374  -25.9183   21.0889 H      401  DMS401      0.0000
@<TRIPOS>BOND
     1     1     2    2
     2     1     3    1
     3     1     4    1
     4     3     5    1
     5     3     6    1
     6     3     7    1
     7     4     8    1
     8     4     9    1
     9     4    10    1

