DMS_1_A_401
  -ISIS-            3D

 10  9  0  0  0  0  0  0  0  0  1 V2000
    6.7870  -27.8390   21.5000 S   0  0  0  0  0
    7.6250  -27.0370   22.4610 O   0  0  0  0  0
    5.3740  -28.3910   22.4370 C   0  0  0  0  0
    5.9510  -26.6860   20.4740 C   0  0  0  0  0
    4.6399  -28.8749   21.7608 H   0  0  0  0  0
    4.8937  -27.5345   22.9535 H   0  0  0  0  0
    5.7042  -29.1305   23.1947 H   0  0  0  0  0
    5.2056  -27.2119   19.8431 H   0  0  0  0  0
    6.6854  -26.1831   19.8122 H   0  0  0  0  0
    5.4374  -25.9183   21.0889 H   0  0  0  0  0
  1  2  2  0  0  0
  1  3  1  0  0  0
  1  4  1  0  0  0
  3  5  1  0  0  0
  3  6  1  0  0  0
  3  7  1  0  0  0
  4  8  1  0  0  0
  4  9  1  0  0  0
  4 10  1  0  0  0
M  END
$$$$
