@<TRIPOS>MOLECULE
DMS_1_E_904
 10 9 0 0 0
SMALL
NO_CHARGES

@<TRIPOS>ATOM
      1 S         -17.4680   33.3110   18.7330 S.o    904  DMS904      0.0000
      2 O         -16.5840   34.5120   18.6350 O.2    904  DMS904      0.0000
      3 C1        -17.6670   32.8740   20.4810 C.3    904  DMS904      0.0000
      4 C2        -16.5580   31.8510   18.1600 C.3    904  DMS904      0.0000
      5 H         -18.2568   31.9384   20.5652 H      904  DMS904      0.0000
      6 H         -18.2041   33.6920   21.0033 H      904  DMS904      0.0000
      7 H         -16.6719   32.7305   20.9497 H      904  DMS904      0.0000
      8 H         -17.1797   30.9443   18.3073 H      904  DMS904      0.0000
      9 H         -15.6108   31.7498   18.7285 H      904  DMS904      0.0000
     10 H         -16.3280   31.9643   17.0809 H      904  DMS904      0.0000
@<TRIPOS>BOND
     1     1     2    2
     2     1     3    1
     3     1     4    1
     4     3     5    1
     5     3     6    1
     6     3     7    1
     7     4     8    1
     8     4     9    1
     9     4    10    1

