@<TRIPOS>MOLECULE
DMS_1_L_1601
 10 9 0 0 0
SMALL
NO_CHARGES

@<TRIPOS>ATOM
      1 S           0.2450   32.6410   39.7180 S.o   1601  DMS1601      0.0000
      2 O           0.2880   34.1320   39.7800 O.2   1601  DMS1601      0.0000
      3 C1         -1.3780   32.0140   39.2030 C.3   1601  DMS1601      0.0000
      4 C2          0.3740   31.9600   41.3940 C.3   1601  DMS1601      0.0000
      5 H          -1.3666   30.9050   39.2112 H     1601  DMS1601      0.0000
      6 H          -1.5984   32.3708   38.1762 H     1601  DMS1601      0.0000
      7 H          -2.1599   32.3842   39.8973 H     1601  DMS1601      0.0000
      8 H           0.3308   30.8526   41.3484 H     1601  DMS1601      0.0000
      9 H          -0.4605   32.3400   42.0183 H     1601  DMS1601      0.0000
     10 H           1.3401   32.2703   41.8420 H     1601  DMS1601      0.0000
@<TRIPOS>BOND
     1     1     2    2
     2     1     3    1
     3     1     4    1
     4     3     5    1
     5     3     6    1
     6     3     7    1
     7     4     8    1
     8     4     9    1
     9     4    10    1

