@<TRIPOS>MOLECULE
DMS_1_H_303
 10 9 0 0 0
SMALL
NO_CHARGES

@<TRIPOS>ATOM
      1 S          40.7070   29.5150   41.5930 S.o    303  DMS303      0.0000
      2 O          39.4910   28.6470   41.6580 O.2    303  DMS303      0.0000
      3 C1         40.2480   31.2280   41.9730 C.3    303  DMS303      0.0000
      4 C2         41.7900   29.1430   43.0000 C.3    303  DMS303      0.0000
      5 H          41.1586   31.8611   41.9888 H      303  DMS303      0.0000
      6 H          39.7461   31.2724   42.9613 H      303  DMS303      0.0000
      7 H          39.5556   31.6029   41.1917 H      303  DMS303      0.0000
      8 H          42.6608   29.8299   42.9894 H      303  DMS303      0.0000
      9 H          42.1488   28.0966   42.9185 H      303  DMS303      0.0000
     10 H          41.2293   29.2668   43.9491 H      303  DMS303      0.0000
@<TRIPOS>BOND
     1     1     2    2
     2     1     3    1
     3     1     4    1
     4     3     5    1
     5     3     6    1
     6     3     7    1
     7     4     8    1
     8     4     9    1
     9     4    10    1

