@<TRIPOS>MOLECULE
DMS_1_E_901
 10 9 0 0 0
SMALL
NO_CHARGES

@<TRIPOS>ATOM
      1 S          -1.2280   19.4040   20.7810 S.o    901  DMS901      0.0000
      2 O          -2.1910   18.9400   19.7360 O.2    901  DMS901      0.0000
      3 C1          0.4570   19.2960   20.1220 C.3    901  DMS901      0.0000
      4 C2         -1.1290   18.1730   22.1110 C.3    901  DMS901      0.0000
      5 H           1.1832   19.5763   20.9121 H      901  DMS901      0.0000
      6 H           0.5602   19.9950   19.2670 H      901  DMS901      0.0000
      7 H           0.6615   18.2614   19.7776 H      901  DMS901      0.0000
      8 H          -0.3620   18.4851   22.8490 H      901  DMS901      0.0000
      9 H          -0.8597   17.1831   21.6887 H      901  DMS901      0.0000
     10 H          -2.1140   18.1015   22.6159 H      901  DMS901      0.0000
@<TRIPOS>BOND
     1     1     2    2
     2     1     3    1
     3     1     4    1
     4     3     5    1
     5     3     6    1
     6     3     7    1
     7     4     8    1
     8     4     9    1
     9     4    10    1

