DMS_1_E_905
  -ISIS-            3D

 10  9  0  0  0  0  0  0  0  0  1 V2000
  -14.2100   24.2980   12.3580 S   0  0  0  0  0
  -14.8510   24.1770   13.7020 O   0  0  0  0  0
  -14.5280   25.9570   11.6960 C   0  0  0  0  0
  -15.1310   23.2860   11.1670 C   0  0  0  0  0
  -14.1168   26.0313   10.6685 H   0  0  0  0  0
  -14.0331   26.7098   12.3430 H   0  0  0  0  0
  -15.6200   26.1508   11.6752 H   0  0  0  0  0
  -14.7047   23.4270   10.1528 H   0  0  0  0  0
  -16.1994   23.5842   11.1667 H   0  0  0  0  0
  -15.0475   22.2177   11.4533 H   0  0  0  0  0
  1  2  2  0  0  0
  1  3  1  0  0  0
  1  4  1  0  0  0
  3  5  1  0  0  0
  3  6  1  0  0  0
  3  7  1  0  0  0
  4  8  1  0  0  0
  4  9  1  0  0  0
  4 10  1  0  0  0
M  END
$$$$
