@<TRIPOS>MOLECULE
DMS_1_H_302
 10 9 0 0 0
SMALL
NO_CHARGES

@<TRIPOS>ATOM
      1 S          47.2410   26.3130   50.1660 S.o    302  DMS302      0.0000
      2 O          47.4560   27.7750   50.3900 O.2    302  DMS302      0.0000
      3 C1         48.5990   25.6540   49.1610 C.3    302  DMS302      0.0000
      4 C2         45.8480   26.0800   49.0270 C.3    302  DMS302      0.0000
      5 H          48.4085   24.5847   48.9354 H      302  DMS302      0.0000
      6 H          49.5490   25.7443   49.7265 H      302  DMS302      0.0000
      7 H          48.6791   26.2262   48.2143 H      302  DMS302      0.0000
      8 H          45.7273   24.9999   48.8047 H      302  DMS302      0.0000
      9 H          46.0343   26.6359   48.0855 H      302  DMS302      0.0000
     10 H          44.9207   26.4610   49.5016 H      302  DMS302      0.0000
@<TRIPOS>BOND
     1     1     2    2
     2     1     3    1
     3     1     4    1
     4     3     5    1
     5     3     6    1
     6     3     7    1
     7     4     8    1
     8     4     9    1
     9     4    10    1

