DMS_1_H_303
  -ISIS-            3D

 10  9  0  0  0  0  0  0  0  0  1 V2000
   40.7070   29.5150   41.5930 S   0  0  0  0  0
   39.4910   28.6470   41.6580 O   0  0  0  0  0
   40.2480   31.2280   41.9730 C   0  0  0  0  0
   41.7900   29.1430   43.0000 C   0  0  0  0  0
   41.1586   31.8611   41.9888 H   0  0  0  0  0
   39.7461   31.2724   42.9613 H   0  0  0  0  0
   39.5556   31.6029   41.1917 H   0  0  0  0  0
   42.6608   29.8299   42.9894 H   0  0  0  0  0
   42.1488   28.0966   42.9185 H   0  0  0  0  0
   41.2293   29.2668   43.9491 H   0  0  0  0  0
  1  2  2  0  0  0
  1  3  1  0  0  0
  1  4  1  0  0  0
  3  5  1  0  0  0
  3  6  1  0  0  0
  3  7  1  0  0  0
  4  8  1  0  0  0
  4  9  1  0  0  0
  4 10  1  0  0  0
M  END
$$$$
