@<TRIPOS>MOLECULE
MLI_1_E_908
 9 8 0 0 0
SMALL
NO_CHARGES

@<TRIPOS>ATOM
      1 C1          9.5250   37.5770   19.8660 C.3    908  MLI908      0.0000
      2 C2          8.8900   38.9630   19.9880 C.2    908  MLI908      0.0000
      3 C3         10.8930   37.6380   19.1830 C.2    908  MLI908      0.0000
      4 O6          7.7180   39.1530   19.5690 O.co2  908  MLI908     -0.5000
      5 O7          9.5230   39.9160   20.5130 O.co2  908  MLI908     -0.5000
      6 O8         11.3800   36.5950   18.6740 O.co2  908  MLI908     -0.5000
      7 O9         11.5400   38.7170   19.1240 O.co2  908  MLI908     -0.5000
      8 H           8.8519   36.8973   19.2962 H      908  MLI908      0.0000
      9 H           9.6426   37.1369   20.8823 H      908  MLI908      0.0000
@<TRIPOS>BOND
     1     1     2    1
     2     1     3    1
     3     1     8    1
     4     1     9    1
     5     2     4   ar
     6     2     5   ar
     7     3     6   ar
     8     3     7   ar

