MLI_1_H_301
  -ISIS-            3D

  9  8  0  0  0  0  0  0  0  0  1 V2000
   42.6980   46.3220   43.9980 C   0  0  0  0  0
   43.7140   45.3710   43.3690 C   0  0  0  0  0
   42.7510   47.6700   43.2830 C   0  0  0  0  0
   43.3220   44.3870   42.6900 O   0  0  0  0  0
   44.9460   45.5720   43.5300 O   0  0  0  0  0
   41.6980   48.1810   42.8200 O   0  0  0  0  0
   43.8500   48.2720   43.1580 O   0  0  0  0  0
   42.9320   46.4628   45.0775 H   0  0  0  0  0
   41.6736   45.8899   43.9404 H   0  0  0  0  0
  1  2  1  0  0  0
  1  3  1  0  0  0
  1  8  1  0  0  0
  1  9  1  0  0  0
  2  4  2  0  0  0
  2  5  2  0  0  0
  3  6  2  0  0  0
  3  7  2  0  0  0
M  END
$$$$
