@<TRIPOS>MOLECULE
MLI_1_H_301
 9 8 0 0 0
SMALL
NO_CHARGES

@<TRIPOS>ATOM
      1 C1         42.6980   46.3220   43.9980 C.3    301  MLI301      0.0000
      2 C2         43.7140   45.3710   43.3690 C.2    301  MLI301      0.0000
      3 C3         42.7510   47.6700   43.2830 C.2    301  MLI301      0.0000
      4 O6         43.3220   44.3870   42.6900 O.co2  301  MLI301     -0.5000
      5 O7         44.9460   45.5720   43.5300 O.co2  301  MLI301     -0.5000
      6 O8         41.6980   48.1810   42.8200 O.co2  301  MLI301     -0.5000
      7 O9         43.8500   48.2720   43.1580 O.co2  301  MLI301     -0.5000
      8 H          42.9320   46.4628   45.0775 H      301  MLI301      0.0000
      9 H          41.6736   45.8899   43.9404 H      301  MLI301      0.0000
@<TRIPOS>BOND
     1     1     2    1
     2     1     3    1
     3     1     8    1
     4     1     9    1
     5     2     4   ar
     6     2     5   ar
     7     3     6   ar
     8     3     7   ar

