@<TRIPOS>MOLECULE
MLI_1_H_304
 9 8 0 0 0
SMALL
NO_CHARGES

@<TRIPOS>ATOM
      1 C1         36.3880   53.5450   49.5470 C.3    304  MLI304      0.0000
      2 C2         36.6750   54.0550   48.1360 C.2    304  MLI304      0.0000
      3 C3         36.7450   54.6270   50.5640 C.2    304  MLI304      0.0000
      4 O6         37.6590   53.6100   47.4880 O.co2  304  MLI304     -0.5000
      5 O7         35.9220   54.9230   47.6210 O.co2  304  MLI304     -0.5000
      6 O8         37.2430   55.7180   50.1800 O.co2  304  MLI304     -0.5000
      7 O9         36.5370   54.4280   51.7900 O.co2  304  MLI304     -0.5000
      8 H          36.9762   52.6231   49.7550 H      304  MLI304      0.0000
      9 H          35.3113   53.2772   49.6414 H      304  MLI304      0.0000
@<TRIPOS>BOND
     1     1     2    1
     2     1     3    1
     3     1     8    1
     4     1     9    1
     5     2     4   ar
     6     2     5   ar
     7     3     6   ar
     8     3     7   ar

