MLI_1_H_305
  -ISIS-            3D

  9  8  0  0  0  0  0  0  0  0  1 V2000
   34.0270   29.9680   49.1440 C   0  0  0  0  0
   34.9910   31.1520   49.2110 C   0  0  0  0  0
   32.9420   30.2460   48.1060 C   0  0  0  0  0
   35.1060   31.9280   48.2260 O   0  0  0  0  0
   35.6720   31.3510   50.2510 O   0  0  0  0  0
   33.2190   30.2130   46.8780 O   0  0  0  0  0
   31.7690   30.5060   48.4810 O   0  0  0  0  0
   33.5716   29.7864   50.1436 H   0  0  0  0  0
   34.5880   29.0469   48.8672 H   0  0  0  0  0
  1  2  1  0  0  0
  1  3  1  0  0  0
  1  8  1  0  0  0
  1  9  1  0  0  0
  2  4  2  0  0  0
  2  5  2  0  0  0
  3  6  2  0  0  0
  3  7  2  0  0  0
M  END
$$$$
