MLI_1_H_304
  -ISIS-            3D

  9  8  0  0  0  0  0  0  0  0  1 V2000
   36.3880   53.5450   49.5470 C   0  0  0  0  0
   36.6750   54.0550   48.1360 C   0  0  0  0  0
   36.7450   54.6270   50.5640 C   0  0  0  0  0
   37.6590   53.6100   47.4880 O   0  0  0  0  0
   35.9220   54.9230   47.6210 O   0  0  0  0  0
   37.2430   55.7180   50.1800 O   0  0  0  0  0
   36.5370   54.4280   51.7900 O   0  0  0  0  0
   36.9762   52.6231   49.7550 H   0  0  0  0  0
   35.3113   53.2772   49.6414 H   0  0  0  0  0
  1  2  1  0  0  0
  1  3  1  0  0  0
  1  8  1  0  0  0
  1  9  1  0  0  0
  2  4  2  0  0  0
  2  5  2  0  0  0
  3  6  2  0  0  0
  3  7  2  0  0  0
M  END
$$$$
