@<TRIPOS>MOLECULE
MLI_1_E_903
 9 8 0 0 0
SMALL
NO_CHARGES

@<TRIPOS>ATOM
      1 C1         -1.7020   33.4560   -1.7680 C.3    903  MLI903      0.0000
      2 C2         -3.2050   33.5980   -2.0250 C.2    903  MLI903      0.0000
      3 C3         -0.9830   34.7960   -1.5970 C.2    903  MLI903      0.0000
      4 O6         -3.8300   32.6500   -2.5680 O.co2  903  MLI903     -0.5000
      5 O7         -3.8340   34.6370   -1.6910 O.co2  903  MLI903     -0.5000
      6 O8         -1.5270   35.8830   -1.9270 O.co2  903  MLI903     -0.5000
      7 O9          0.1810   34.8120   -1.1160 O.co2  903  MLI903     -0.5000
      8 H          -1.2326   32.9014   -2.6123 H      903  MLI903      0.0000
      9 H          -1.5507   32.8366   -0.8545 H      903  MLI903      0.0000
@<TRIPOS>BOND
     1     1     2    1
     2     1     3    1
     3     1     8    1
     4     1     9    1
     5     2     4   ar
     6     2     5   ar
     7     3     6   ar
     8     3     7   ar

