EDO_1_A_402
  -ISIS-            3D

 10  9  0  0  0  0  0  0  0  0  1 V2000
   -7.3690   -1.0420   -5.5380 C   0  0  0  0  0
   -6.5110   -1.0420   -4.4510 O   0  0  0  0  0
   -6.8460   -1.2350   -6.8740 C   0  0  0  0  0
   -7.7120   -1.9020   -7.7170 O   0  0  0  0  0
   -7.9754   -0.1105   -5.5100 H   0  0  0  0  0
   -8.1033   -1.8526   -5.3379 H   0  0  0  0  0
   -5.9219   -0.3023   -4.5233 H   0  0  0  0  0
   -5.9185   -1.8432   -6.8138 H   0  0  0  0  0
   -6.5388   -0.2689   -7.3280 H   0  0  0  0  0
   -8.4288   -1.3258   -7.9493 H   0  0  0  0  0
  1  2  1  0  0  0
  1  3  1  0  0  0
  1  5  1  0  0  0
  1  6  1  0  0  0
  2  7  1  0  0  0
  3  4  1  0  0  0
  3  8  1  0  0  0
  3  9  1  0  0  0
  4 10  1  0  0  0
M  END
$$$$
