@<TRIPOS>MOLECULE
EDO_1_A_404
 10 9 0 0 0
SMALL
NO_CHARGES

@<TRIPOS>ATOM
      1 C1         10.7090  -16.3060   16.9470 C.3    404  EDO404      0.0000
      2 O1         11.5060  -15.7070   18.1300 O.3    404  EDO404      0.0000
      3 C2         11.2070  -16.1740   15.4880 C.3    404  EDO404      0.0000
      4 O2         11.8750  -17.3670   14.7700 O.3    404  EDO404      0.0000
      5 H           9.6963  -15.8517   17.0012 H      404  EDO404      0.0000
      6 H          10.5497  -17.3840   17.1617 H      404  EDO404      0.0000
      7 H          12.3484  -16.1414   18.1338 H      404  EDO404      0.0000
      8 H          11.9253  -15.3283   15.4490 H      404  EDO404      0.0000
      9 H          10.3500  -15.8503   14.8575 H      404  EDO404      0.0000
     10 H          11.2126  -17.7836   14.2347 H      404  EDO404      0.0000
@<TRIPOS>BOND
     1     1     2    1
     2     1     3    1
     3     1     5    1
     4     1     6    1
     5     2     7    1
     6     3     4    1
     7     3     8    1
     8     3     9    1
     9     4    10    1

