DMS_2_A_403
  -ISIS-            3D

 10  9  0  0  0  0  0  0  0  0  1 V2000
   -6.0850   -0.8840    6.2810 S   0  0  0  0  0
   -7.1020   -0.7360    7.3520 O   0  0  0  0  0
   -7.0100   -0.9320    4.7440 C   0  0  0  0  0
   -5.5900   -2.5830    6.3090 C   0  0  0  0  0
   -6.3310   -1.1911    3.9059 H   0  0  0  0  0
   -7.4519    0.0672    4.5525 H   0  0  0  0  0
   -7.8244   -1.6824    4.8074 H   0  0  0  0  0
   -4.9447   -2.8017    5.4336 H   0  0  0  0  0
   -6.4786   -3.2465    6.2874 H   0  0  0  0  0
   -5.0140   -2.7821    7.2358 H   0  0  0  0  0
  1  2  2  0  0  0
  1  3  1  0  0  0
  1  4  1  0  0  0
  3  5  1  0  0  0
  3  6  1  0  0  0
  3  7  1  0  0  0
  4  8  1  0  0  0
  4  9  1  0  0  0
  4 10  1  0  0  0
M  END
$$$$
