@<TRIPOS>MOLECULE
DMS_2_A_402
 10 9 0 0 0
SMALL
NO_CHARGES

@<TRIPOS>ATOM
      1 S          -7.8660  -21.2430  -29.2460 S.o    402  DMS402      0.0000
      2 O          -8.4850  -20.4650  -28.1300 O.2    402  DMS402      0.0000
      3 C1         -6.3510  -20.4010  -29.6420 C.3    402  DMS402      0.0000
      4 C2         -7.1390  -22.6710  -28.4890 C.3    402  DMS402      0.0000
      5 H          -5.7594  -21.0071  -30.3582 H      402  DMS402      0.0000
      6 H          -5.7535  -20.2259  -28.7239 H      402  DMS402      0.0000
      7 H          -6.5872  -19.4237  -30.1105 H      402  DMS402      0.0000
      8 H          -6.5274  -23.2217  -29.2326 H      402  DMS402      0.0000
      9 H          -7.9434  -23.3409  -28.1222 H      402  DMS402      0.0000
     10 H          -6.4996  -22.3733  -27.6328 H      402  DMS402      0.0000
@<TRIPOS>BOND
     1     1     2    2
     2     1     3    1
     3     1     4    1
     4     3     5    1
     5     3     6    1
     6     3     7    1
     7     4     8    1
     8     4     9    1
     9     4    10    1

