@<TRIPOS>MOLECULE
DMS_2_A_401
 10 9 0 0 0
SMALL
NO_CHARGES

@<TRIPOS>ATOM
      1 S          -7.1850  -28.0150  -21.4960 S.o    401  DMS401      0.0000
      2 O          -6.3460  -27.1900  -20.5330 O.2    401  DMS401      0.0000
      3 C1         -7.8670  -26.9190  -22.6280 C.3    401  DMS401      0.0000
      4 C2         -6.0040  -28.8100  -22.5690 C.3    401  DMS401      0.0000
      5 H          -8.3662  -27.4775  -23.4460 H      401  DMS401      0.0000
      6 H          -7.0843  -26.2619  -23.0595 H      401  DMS401      0.0000
      7 H          -8.6235  -26.2856  -22.1211 H      401  DMS401      0.0000
      8 H          -6.5347  -29.3319  -23.3914 H      401  DMS401      0.0000
      9 H          -5.4247  -29.5557  -21.9868 H      401  DMS401      0.0000
     10 H          -5.3045  -28.0622  -22.9959 H      401  DMS401      0.0000
@<TRIPOS>BOND
     1     1     2    2
     2     1     3    1
     3     1     4    1
     4     3     5    1
     5     3     6    1
     6     3     7    1
     7     4     8    1
     8     4     9    1
     9     4    10    1

