DMS_2_A_406
  -ISIS-            3D

 10  9  0  0  0  0  0  0  0  0  1 V2000
  -13.1760    4.5960  -23.5510 S   0  0  0  0  0
  -14.1710    4.9860  -22.4880 O   0  0  0  0  0
  -12.0570    3.4500  -22.7940 C   0  0  0  0  0
  -12.0620    5.9590  -23.6890 C   0  0  0  0  0
  -11.2112    3.2396  -23.4800 H   0  0  0  0  0
  -12.5913    2.5008  -22.5844 H   0  0  0  0  0
  -11.6665    3.8615  -21.8407 H   0  0  0  0  0
  -11.2140    5.6881  -24.3507 H   0  0  0  0  0
  -11.6738    6.2462  -22.6903 H   0  0  0  0  0
  -12.5955    6.8256  -24.1304 H   0  0  0  0  0
  1  2  2  0  0  0
  1  3  1  0  0  0
  1  4  1  0  0  0
  3  5  1  0  0  0
  3  6  1  0  0  0
  3  7  1  0  0  0
  4  8  1  0  0  0
  4  9  1  0  0  0
  4 10  1  0  0  0
M  END
$$$$
