DMS_2_A_402
  -ISIS-            3D

 10  9  0  0  0  0  0  0  0  0  1 V2000
   -7.8660  -21.2430  -29.2460 S   0  0  0  0  0
   -8.4850  -20.4650  -28.1300 O   0  0  0  0  0
   -6.3510  -20.4010  -29.6420 C   0  0  0  0  0
   -7.1390  -22.6710  -28.4890 C   0  0  0  0  0
   -5.7594  -21.0071  -30.3582 H   0  0  0  0  0
   -5.7535  -20.2259  -28.7239 H   0  0  0  0  0
   -6.5872  -19.4237  -30.1105 H   0  0  0  0  0
   -6.5274  -23.2217  -29.2326 H   0  0  0  0  0
   -7.9434  -23.3409  -28.1222 H   0  0  0  0  0
   -6.4996  -22.3733  -27.6328 H   0  0  0  0  0
  1  2  2  0  0  0
  1  3  1  0  0  0
  1  4  1  0  0  0
  3  5  1  0  0  0
  3  6  1  0  0  0
  3  7  1  0  0  0
  4  8  1  0  0  0
  4  9  1  0  0  0
  4 10  1  0  0  0
M  END
$$$$
