@<TRIPOS>MOLECULE
DMS_1_A_403
 10 9 0 0 0
SMALL
NO_CHARGES

@<TRIPOS>ATOM
      1 S           6.0850   -0.8840   -6.2810 S.o    403  DMS403      0.0000
      2 O           7.1020   -0.7360   -7.3520 O.2    403  DMS403      0.0000
      3 C1          7.0100   -0.9320   -4.7440 C.3    403  DMS403      0.0000
      4 C2          5.5900   -2.5830   -6.3090 C.3    403  DMS403      0.0000
      5 H           6.3310   -1.1911   -3.9059 H      403  DMS403      0.0000
      6 H           7.4519    0.0672   -4.5525 H      403  DMS403      0.0000
      7 H           7.8244   -1.6824   -4.8074 H      403  DMS403      0.0000
      8 H           4.9447   -2.8017   -5.4336 H      403  DMS403      0.0000
      9 H           6.4786   -3.2465   -6.2874 H      403  DMS403      0.0000
     10 H           5.0140   -2.7821   -7.2358 H      403  DMS403      0.0000
@<TRIPOS>BOND
     1     1     2    2
     2     1     3    1
     3     1     4    1
     4     3     5    1
     5     3     6    1
     6     3     7    1
     7     4     8    1
     8     4     9    1
     9     4    10    1

