@<TRIPOS>MOLECULE
DMS_1_A_401
 10 9 0 0 0
SMALL
NO_CHARGES

@<TRIPOS>ATOM
      1 S           7.1150  -28.2390   21.3480 S.o    401  DMS401      0.0000
      2 O           7.8120  -27.3000   22.2820 O.2    401  DMS401      0.0000
      3 C1          6.1950  -27.2790   20.1220 C.3    401  DMS401      0.0000
      4 C2          5.7590  -29.0260   22.2560 C.3    401  DMS401      0.0000
      5 H           5.6064  -27.9651   19.4793 H      401  DMS401      0.0000
      6 H           6.9088  -26.7104   19.4916 H      401  DMS401      0.0000
      7 H           5.5116  -26.5707   20.6337 H      401  DMS401      0.0000
      8 H           5.1768  -29.6713   21.5668 H      401  DMS401      0.0000
      9 H           5.0950  -28.2498   22.6887 H      401  DMS401      0.0000
     10 H           6.1781  -29.6486   23.0728 H      401  DMS401      0.0000
@<TRIPOS>BOND
     1     1     2    2
     2     1     3    1
     3     1     4    1
     4     3     5    1
     5     3     6    1
     6     3     7    1
     7     4     8    1
     8     4     9    1
     9     4    10    1

