DMS_1_A_401
  -ISIS-            3D

 10  9  0  0  0  0  0  0  0  0  1 V2000
    7.1150  -28.2390   21.3480 S   0  0  0  0  0
    7.8120  -27.3000   22.2820 O   0  0  0  0  0
    6.1950  -27.2790   20.1220 C   0  0  0  0  0
    5.7590  -29.0260   22.2560 C   0  0  0  0  0
    5.6064  -27.9651   19.4793 H   0  0  0  0  0
    6.9088  -26.7104   19.4916 H   0  0  0  0  0
    5.5116  -26.5707   20.6337 H   0  0  0  0  0
    5.1768  -29.6713   21.5668 H   0  0  0  0  0
    5.0950  -28.2498   22.6887 H   0  0  0  0  0
    6.1781  -29.6486   23.0728 H   0  0  0  0  0
  1  2  2  0  0  0
  1  3  1  0  0  0
  1  4  1  0  0  0
  3  5  1  0  0  0
  3  6  1  0  0  0
  3  7  1  0  0  0
  4  8  1  0  0  0
  4  9  1  0  0  0
  4 10  1  0  0  0
M  END
$$$$
