@<TRIPOS>MOLECULE
DMS_2_A_403
 10 9 0 0 0
SMALL
NO_CHARGES

@<TRIPOS>ATOM
      1 S          -6.2860   -0.9810    6.3170 S.o    403  DMS403      0.0000
      2 O          -7.2760   -0.7390    7.4090 O.2    403  DMS403      0.0000
      3 C1         -7.1630   -1.0450    4.7260 C.3    403  DMS403      0.0000
      4 C2         -5.6450   -2.6830    6.3750 C.3    403  DMS403      0.0000
      5 H          -6.4424   -1.2717    3.9138 H      403  DMS403      0.0000
      6 H          -7.6365   -0.0613    4.5301 H      403  DMS403      0.0000
      7 H          -7.9463   -1.8298    4.7596 H      403  DMS403      0.0000
      8 H          -4.9665   -2.8535    5.5143 H      403  DMS403      0.0000
      9 H          -6.4877   -3.4033    6.3350 H      403  DMS403      0.0000
     10 H          -5.0817   -2.8284    7.3194 H      403  DMS403      0.0000
@<TRIPOS>BOND
     1     1     2    2
     2     1     3    1
     3     1     4    1
     4     3     5    1
     5     3     6    1
     6     3     7    1
     7     4     8    1
     8     4     9    1
     9     4    10    1

