@<TRIPOS>MOLECULE
1FF_1_A_201
 24 25 0 0 0
SMALL
NO_CHARGES

@<TRIPOS>ATOM
      1 O1        -42.8930  -31.9620    2.9410 O.co2  201  1FF201     -0.5000
      2 C11       -43.3220  -32.7790    2.0890 C.2    201  1FF201      0.0000
      3 O2        -43.9610  -33.7840    2.4820 O.co2  201  1FF201     -0.5000
      4 C1        -43.0340  -32.5650    0.6060 C.ar   201  1FF201      0.0000
      5 C3        -42.0150  -31.7590    0.0480 C.ar   201  1FF201      0.0000
      6 N2        -42.0880  -31.8620   -1.2490 N.ar   201  1FF201      0.0000
      7 N1        -43.0890  -32.6600   -1.5620 N.ar   201  1FF201      0.0000
      8 C4        -43.4360  -33.0070   -2.9300 C.3    201  1FF201      0.0000
      9 C2        -43.7010  -33.1290   -0.4980 C.ar   201  1FF201      0.0000
     10 C5        -44.8840  -34.0960   -0.4940 C.ar   201  1FF201      0.0000
     11 C10       -46.0860  -33.7140    0.0630 C.ar   201  1FF201      0.0000
     12 C9        -47.1700  -34.5660    0.0580 C.ar   201  1FF201      0.0000
     13 C8        -47.0570  -35.8080   -0.5160 C.ar   201  1FF201      0.0000
     14 C7        -45.8700  -36.2030   -1.0910 C.ar   201  1FF201      0.0000
     15 C6        -44.7820  -35.3470   -1.0880 C.ar   201  1FF201      0.0000
     16 H         -41.2779  -31.1538    0.5927 H      201  1FF201      0.0000
     17 H         -44.5360  -33.0287   -3.0937 H      201  1FF201      0.0000
     18 H         -43.0170  -33.9939   -3.2248 H      201  1FF201      0.0000
     19 H         -43.0291  -32.2555   -3.6426 H      201  1FF201      0.0000
     20 H         -46.1872  -32.7151    0.5207 H      201  1FF201      0.0000
     21 H         -48.1241  -34.2505    0.5134 H      201  1FF201      0.0000
     22 H         -47.9224  -36.4927   -0.5183 H      201  1FF201      0.0000
     23 H         -45.7855  -37.2009   -1.5542 H      201  1FF201      0.0000
     24 H         -43.8337  -35.6675   -1.5508 H      201  1FF201      0.0000
@<TRIPOS>BOND
     1     1     2   ar
     2     2     3   ar
     3     2     4    1
     4     4     5   ar
     5     4     9   ar
     6     5     6   ar
     7     5    16    1
     8     6     7   ar
     9     7     8    1
    10     7     9   ar
    11     8    17    1
    12     8    18    1
    13     8    19    1
    14     9    10    1
    15    10    11   ar
    16    10    15   ar
    17    11    12   ar
    18    11    20    1
    19    12    13   ar
    20    12    21    1
    21    13    14   ar
    22    13    22    1
    23    14    15   ar
    24    14    23    1
    25    15    24    1

