1FF_1_A_201
  -ISIS-            3D

 24 25  0  0  0  0  0  0  0  0  1 V2000
  -42.8930  -31.9620    2.9410 O   0  0  0  0  0
  -43.3220  -32.7790    2.0890 C   0  0  0  0  0
  -43.9610  -33.7840    2.4820 O   0  0  0  0  0
  -43.0340  -32.5650    0.6060 C   0  0  0  0  0
  -42.0150  -31.7590    0.0480 C   0  0  0  0  0
  -42.0880  -31.8620   -1.2490 N   0  0  0  0  0
  -43.0890  -32.6600   -1.5620 N   0  0  0  0  0
  -43.4360  -33.0070   -2.9300 C   0  0  0  0  0
  -43.7010  -33.1290   -0.4980 C   0  0  0  0  0
  -44.8840  -34.0960   -0.4940 C   0  0  0  0  0
  -46.0860  -33.7140    0.0630 C   0  0  0  0  0
  -47.1700  -34.5660    0.0580 C   0  0  0  0  0
  -47.0570  -35.8080   -0.5160 C   0  0  0  0  0
  -45.8700  -36.2030   -1.0910 C   0  0  0  0  0
  -44.7820  -35.3470   -1.0880 C   0  0  0  0  0
  -41.2779  -31.1538    0.5927 H   0  0  0  0  0
  -44.5360  -33.0287   -3.0937 H   0  0  0  0  0
  -43.0170  -33.9939   -3.2248 H   0  0  0  0  0
  -43.0291  -32.2555   -3.6426 H   0  0  0  0  0
  -46.1872  -32.7151    0.5207 H   0  0  0  0  0
  -48.1241  -34.2505    0.5134 H   0  0  0  0  0
  -47.9224  -36.4927   -0.5183 H   0  0  0  0  0
  -45.7855  -37.2009   -1.5542 H   0  0  0  0  0
  -43.8337  -35.6675   -1.5508 H   0  0  0  0  0
  1  2  2  0  0  0
  2  3  2  0  0  0
  2  4  1  0  0  0
  4  5  1  0  0  0
  4  9  2  0  0  0
  5  6  2  0  0  0
  5 16  1  0  0  0
  6  7  1  0  0  0
  7  8  1  0  0  0
  7  9  1  0  0  0
  8 17  1  0  0  0
  8 18  1  0  0  0
  8 19  1  0  0  0
  9 10  1  0  0  0
 10 11  2  0  0  0
 10 15  1  0  0  0
 11 12  1  0  0  0
 11 20  1  0  0  0
 12 13  2  0  0  0
 12 21  1  0  0  0
 13 14  1  0  0  0
 13 22  1  0  0  0
 14 15  2  0  0  0
 14 23  1  0  0  0
 15 24  1  0  0  0
M  END
$$$$
