@<TRIPOS>MOLECULE
3A9_1_A_201
 17 18 0 0 0
SMALL
NO_CHARGES

@<TRIPOS>ATOM
      1 C1        -46.2280  -29.5000    2.8880 C.2    201  3A9201      0.0000
      2 O1        -45.2720  -29.5770    3.6630 O.co2  201  3A9201     -0.5000
      3 C2        -47.6240  -29.3540    3.4820 C.ar   201  3A9201      0.0000
      4 O2        -46.0430  -29.5650    1.6320 O.co2  201  3A9201     -0.5000
      5 C3        -48.6500  -29.0250    2.6110 C.ar   201  3A9201      0.0000
      6 O3        -51.5300  -29.0200    5.0430 O.3    201  3A9201      0.0000
      7 C4        -49.9310  -28.8790    3.0570 C.ar   201  3A9201      0.0000
      8 C5        -50.2290  -29.0830    4.3930 C.ar   201  3A9201      0.0000
      9 C6        -51.3220  -29.6710    6.3060 C.ar   201  3A9201      0.0000
     10 C7        -49.8760  -29.5180    6.6330 C.ar   201  3A9201      0.0000
     11 C8        -49.2220  -29.3840    5.3070 C.ar   201  3A9201      0.0000
     12 C9        -47.8700  -29.5100    4.8490 C.ar   201  3A9201      0.0000
     13 H         -48.4448  -28.8758    1.5374 H      201  3A9201      0.0000
     14 H         -50.7384  -28.6140    2.3580 H      201  3A9201      0.0000
     15 H         -52.2275  -29.9174    6.8602 H      201  3A9201      0.0000
     16 H         -49.3934  -29.6536    7.6061 H      201  3A9201      0.0000
     17 H         -47.0644  -29.7403    5.5638 H      201  3A9201      0.0000
@<TRIPOS>BOND
     1     1     2   ar
     2     1     3    1
     3     1     4   ar
     4     3     5   ar
     5     3    12   ar
     6     5     7   ar
     7     5    13    1
     8     6     8   ar
     9     6     9   ar
    10     7     8   ar
    11     7    14    1
    12     8    11   ar
    13     9    10   ar
    14     9    15    1
    15    10    11   ar
    16    10    16    1
    17    11    12   ar
    18    12    17    1

