EDO_1_A_502
  -ISIS-            3D

 10  9  0  0  0  0  0  0  0  0  1 V2000
   -0.8620  -26.2630   10.7060 C   0  0  0  0  0
   -2.0840  -26.7050   11.3090 O   0  0  0  0  0
   -0.8570  -26.2980    9.1750 C   0  0  0  0  0
    0.0390  -25.2790    8.6900 O   0  0  0  0  0
   -0.0108  -26.8531   11.1068 H   0  0  0  0  0
   -0.6946  -25.2183   11.0435 H   0  0  0  0  0
   -2.1165  -27.6511   11.2562 H   0  0  0  0  0
   -1.8777  -26.0940    8.7875 H   0  0  0  0  0
   -0.5453  -27.2955    8.8015 H   0  0  0  0  0
   -0.0166  -25.2613    7.7436 H   0  0  0  0  0
  1  2  1  0  0  0
  1  3  1  0  0  0
  1  5  1  0  0  0
  1  6  1  0  0  0
  2  7  1  0  0  0
  3  4  1  0  0  0
  3  8  1  0  0  0
  3  9  1  0  0  0
  4 10  1  0  0  0
M  END
$$$$
