@<TRIPOS>MOLECULE
EDO_1_A_502
 10 9 0 0 0
SMALL
NO_CHARGES

@<TRIPOS>ATOM
      1 C1         -0.8620  -26.2630   10.7060 C.3    502  EDO502      0.0000
      2 O1         -2.0840  -26.7050   11.3090 O.3    502  EDO502      0.0000
      3 C2         -0.8570  -26.2980    9.1750 C.3    502  EDO502      0.0000
      4 O2          0.0390  -25.2790    8.6900 O.3    502  EDO502      0.0000
      5 H          -0.0108  -26.8531   11.1068 H      502  EDO502      0.0000
      6 H          -0.6946  -25.2183   11.0435 H      502  EDO502      0.0000
      7 H          -2.1165  -27.6511   11.2562 H      502  EDO502      0.0000
      8 H          -1.8777  -26.0940    8.7875 H      502  EDO502      0.0000
      9 H          -0.5453  -27.2955    8.8015 H      502  EDO502      0.0000
     10 H          -0.0166  -25.2613    7.7436 H      502  EDO502      0.0000
@<TRIPOS>BOND
     1     1     2    1
     2     1     3    1
     3     1     5    1
     4     1     6    1
     5     2     7    1
     6     3     4    1
     7     3     8    1
     8     3     9    1
     9     4    10    1

