OHB_1_A_201
  -ISIS-            3D

 17 17  0  0  0  0  0  0  0  0  1 V2000
  -48.7680  -29.0570    3.3940 O   0  0  0  0  0
  -48.5200  -29.0480    4.5380 C   0  0  0  0  0
  -47.1690  -29.0140    4.9780 N   0  0  0  0  0
  -49.6300  -29.1220    5.5890 C   0  0  0  0  0
  -50.8930  -29.3370    5.1500 C   0  0  0  0  0
  -51.0410  -29.4320    3.8120 O   0  0  0  0  0
  -51.9820  -29.4560    5.9640 C   0  0  0  0  0
  -51.8210  -29.3530    7.3090 C   0  0  0  0  0
  -50.5660  -29.1310    7.7760 C   0  0  0  0  0
  -49.4500  -29.0330    6.9500 C   0  0  0  0  0
  -46.4339  -28.9736    4.2604 H   0  0  0  0  0
  -46.9472  -29.0313    5.9803 H   0  0  0  0  0
  -51.9274  -29.5761    3.5119 H   0  0  0  0  0
  -52.9890  -29.6327    5.5492 H   0  0  0  0  0
  -52.6797  -29.4418    7.9954 H   0  0  0  0  0
  -50.4194  -29.0351    8.8666 H   0  0  0  0  0
  -48.4578  -28.8748    7.3998 H   0  0  0  0  0
  1  2  2  0  0  0
  2  3  1  0  0  0
  2  4  1  0  0  0
  3 11  1  0  0  0
  3 12  1  0  0  0
  4  5  2  0  0  0
  4 10  1  0  0  0
  5  6  1  0  0  0
  5  7  1  0  0  0
  6 13  1  0  0  0
  7  8  2  0  0  0
  7 14  1  0  0  0
  8  9  1  0  0  0
  8 15  1  0  0  0
  9 10  2  0  0  0
  9 16  1  0  0  0
 10 17  1  0  0  0
M  END
$$$$
