@<TRIPOS>MOLECULE
3R6_1_A_201
 19 19 0 0 0
SMALL
NO_CHARGES

@<TRIPOS>ATOM
      1 C01       -49.1570  -29.0290    6.7690 C.3    201  3R6201      0.0000
      2 S02       -47.3620  -29.0360    6.5510 S.3    201  3R6201      0.0000
      3 C03       -47.0630  -29.1190    4.7920 C.ar   201  3R6201      0.0000
      4 C04       -47.9930  -28.9690    3.8460 C.ar   201  3R6201      0.0000
      5 C05       -47.6030  -29.1110    2.5070 C.ar   201  3R6201      0.0000
      6 C06       -46.2620  -29.4300    2.2530 C.ar   201  3R6201      0.0000
      7 O07       -45.7610  -29.6030    0.9810 O.3    201  3R6201      0.0000
      8 C08       -45.3820  -29.5640    3.2690 C.ar   201  3R6201      0.0000
      9 C09       -45.7920  -29.4670    4.4970 C.ar   201  3R6201      0.0000
     10 C10       -43.9440  -29.9210    2.9730 C.2    201  3R6201      0.0000
     11 O11       -43.1170  -30.1040    3.8530 O.co2  201  3R6201     -0.5000
     12 O12       -43.5960  -29.9460    1.8500 O.co2  201  3R6201     -0.5000
     13 H         -49.3911  -29.0424    7.8554 H      201  3R6201      0.0000
     14 H         -49.5987  -29.9305    6.2917 H      201  3R6201      0.0000
     15 H         -49.5895  -28.1096    6.3186 H      201  3R6201      0.0000
     16 H         -49.0429  -28.7349    4.0816 H      201  3R6201      0.0000
     17 H         -48.3220  -28.9852    1.6817 H      201  3R6201      0.0000
     18 H         -45.2579  -30.3935    0.8307 H      201  3R6201      0.0000
     19 H         -45.0792  -29.6478    5.3206 H      201  3R6201      0.0000
@<TRIPOS>BOND
     1     1     2    1
     2     1    13    1
     3     1    14    1
     4     1    15    1
     5     2     3    1
     6     3     4   ar
     7     3     9   ar
     8     4     5   ar
     9     4    16    1
    10     5     6   ar
    11     5    17    1
    12     6     7    1
    13     6     8   ar
    14     7    18    1
    15     8     9   ar
    16     8    10    1
    17     9    19    1
    18    10    11   ar
    19    10    12   ar

