@<TRIPOS>MOLECULE
FMT_1_A_7110
 3 2 0 0 0
SMALL
NO_CHARGES

@<TRIPOS>ATOM
      1 C         101.3850    7.4840  -10.0740 C.2   7110  FMT7110      0.0000
      2 O1        101.6160    6.9240   -9.0220 O.2   7110  FMT7110      0.0000
      3 O2        102.2840    8.0130  -10.8450 O.2   7110  FMT7110     -0.5000
@<TRIPOS>BOND
     1     1     2   ar
     2     1     3   ar

