@<TRIPOS>MOLECULE
FMT_1_A_7109
 3 2 0 0 0
SMALL
NO_CHARGES

@<TRIPOS>ATOM
      1 C          96.6140    5.5890   -4.4700 C.2   7109  FMT7109      0.0000
      2 O1         95.9510    5.7070   -5.4790 O.2   7109  FMT7109      0.0000
      3 O2         96.4740    6.3110   -3.4010 O.2   7109  FMT7109     -0.5000
@<TRIPOS>BOND
     1     1     2   ar
     2     1     3   ar

