@<TRIPOS>MOLECULE
FMT_1_A_7107
 3 2 0 0 0
SMALL
NO_CHARGES

@<TRIPOS>ATOM
      1 C          70.7260   24.3720    1.4980 C.2   7107  FMT7107      0.0000
      2 O1         71.0830   25.5290    1.5840 O.2   7107  FMT7107      0.0000
      3 O2         71.5180   23.3640    1.2860 O.2   7107  FMT7107     -0.5000
@<TRIPOS>BOND
     1     1     2   ar
     2     1     3   ar

