@<TRIPOS>MOLECULE
FMT_1_A_7104
 3 2 0 0 0
SMALL
NO_CHARGES

@<TRIPOS>ATOM
      1 C          81.3800   24.2050    7.9190 C.2   7104  FMT7104      0.0000
      2 O1         81.1990   23.0760    7.5110 O.2   7104  FMT7104      0.0000
      3 O2         80.5490   25.1910    7.7730 O.2   7104  FMT7104     -0.5000
@<TRIPOS>BOND
     1     1     2   ar
     2     1     3   ar

