FMT_1_A_7106
  -ISIS-            3D

  4  3  0  0  0  0  0  0  0  0  1 V2000
   99.5630    9.2270  -15.8270 C   0  0  0  0  0
   98.7220    9.2850  -16.7020 O   0  0  0  0  0
   99.6220   10.0250  -14.8000 O   0  0  0  0  0
  100.3712    8.4067  -15.9065 H   0  0  0  0  0
  1  2  2  0  0  0
  1  3  1  0  0  0
  1  4  1  0  0  0
M  END
$$$$
