@<TRIPOS>MOLECULE
FMT_1_A_7108
 4 3 0 0 0
SMALL
NO_CHARGES

@<TRIPOS>ATOM
      1 C          91.6210   11.5270   14.7880 C.2   7108  FMT7108      0.0000
      2 O1         90.8010   11.5400   13.8930 O.2   7108  FMT7108     -0.5000
      3 O2         92.8960   11.7290   14.6330 O.3   7108  FMT7108     -0.5000
      4 H          91.2464   11.3202   15.8601 H     7108  FMT7108      0.0000
@<TRIPOS>BOND
     1     1     2   ar
     2     1     3   ar
     3     1     4    1

