SAM_1_A_7102
  -ISIS-            3D

 50 52  0  0  0  0  0  0  0  0  1 V2000
   80.7650   18.6660   -0.9580 N   0  3  0  0  0
   79.3810   18.2170   -0.6530 C   0  0  0  0  0
   78.3820   19.1370   -1.3760 C   0  0  0  0  0
   78.7280   19.5680   -2.5020 O   0  0  0  0  0
   77.2860   19.3590   -0.8230 O   0  0  0  0  0
   79.1480   18.2000    0.8640 C   0  0  0  0  0
   80.1470   17.2880    1.5910 C   0  0  0  0  0
   79.7880   17.0390    3.3460 S   0  0  0  0  0
   80.1820   18.6460    4.0190 C   0  0  0  0  0
   81.2610   16.0680    3.8100 C   0  0  0  0  0
   81.3400   14.6950    3.1640 C   0  0  0  0  0
   82.5850   14.0480    3.5190 O   0  0  0  0  0
   80.2360   13.7140    3.5770 C   0  0  0  0  0
   79.4290   13.4020    2.4490 O   0  0  0  0  0
   80.9950   12.4890    4.1130 C   0  0  0  0  0
   80.3980   11.2630    3.7470 O   0  0  0  0  0
   82.3620   12.6600    3.4610 C   0  0  0  0  0
   83.4420   11.9330    4.1300 N   0  0  0  0  0
   83.7850   11.9970    5.4570 C   0  0  0  0  0
   84.7790   11.2070    5.7800 N   0  0  0  0  0
   85.1090   10.5640    4.5970 C   0  0  0  0  0
   86.0830    9.5920    4.2830 C   0  0  0  0  0
   86.9280    9.0690    5.1700 N   0  0  0  0  0
   86.1400    9.1560    3.0030 N   0  0  0  0  0
   85.2850    9.6770    2.1140 C   0  0  0  0  0
   84.3300   10.5860    2.2940 N   0  0  0  0  0
   84.2910   11.0010    3.5720 C   0  0  0  0  0
   81.4529   18.0211   -0.5831 H   0  0  0  0  0
   80.9416   19.5882   -0.5693 H   0  0  0  0  0
   79.2390   17.1856   -1.0564 H   0  0  0  0  0
   78.1146   17.8379    1.0725 H   0  0  0  0  0
   79.2161   19.2352    1.2691 H   0  0  0  0  0
   81.1814   17.6880    1.5098 H   0  0  0  0  0
   80.1361   16.2895    1.1008 H   0  0  0  0  0
   80.1951   18.6019    5.1296 H   0  0  0  0  0
   79.4161   19.3948    3.7236 H   0  0  0  0  0
   81.1732   19.0176    3.6814 H   0  0  0  0  0
   81.2648   15.9668    4.9177 H   0  0  0  0  0
   82.1679   16.6553    3.5449 H   0  0  0  0  0
   81.3330   14.8078    2.0587 H   0  0  0  0  0
   79.5967   14.1369    4.3797 H   0  0  0  0  0
   79.1472   12.5004    2.5542 H   0  0  0  0  0
   81.0754   12.5654    5.2181 H   0  0  0  0  0
   80.9825   10.5658    4.0156 H   0  0  0  0  0
   82.3283   12.3308    2.4002 H   0  0  0  0  0
   83.3395   12.6195    6.2441 H   0  0  0  0  0
   85.3800    9.2887    1.0852 H   0  0  0  0  0
   87.5738    8.3609    4.7994 H   0  0  0  0  0
   86.8684    9.4102    6.1379 H   0  0  0  0  0
   80.9228   18.7069   -1.9605 H   0  0  0  0  0
  1  2  1  0  0  0
  1 28  1  0  0  0
  1 29  1  0  0  0
  2  3  1  0  0  0
  2  6  1  0  0  0
  2 30  1  0  0  0
  3  4  2  0  0  0
  3  5  2  0  0  0
  6  7  1  0  0  0
  6 31  1  0  0  0
  6 32  1  0  0  0
  7  8  1  0  0  0
  7 33  1  0  0  0
  7 34  1  0  0  0
  8  9  1  0  0  0
  8 10  1  0  0  0
  9 35  1  0  0  0
  9 36  1  0  0  0
  9 37  1  0  0  0
 10 11  1  0  0  0
 10 38  1  0  0  0
 10 39  1  0  0  0
 11 12  1  0  0  0
 11 13  1  0  0  0
 11 40  1  0  0  0
 12 17  1  0  0  0
 13 14  1  0  0  0
 13 15  1  0  0  0
 13 41  1  0  0  0
 14 42  1  0  0  0
 15 16  1  0  0  0
 15 17  1  0  0  0
 15 43  1  0  0  0
 16 44  1  0  0  0
 17 18  1  0  0  0
 17 45  1  0  0  0
 18 19  1  0  0  0
 18 27  1  0  0  0
 19 20  2  0  0  0
 19 46  1  0  0  0
 20 21  1  0  0  0
 21 22  2  0  0  0
 21 27  1  0  0  0
 22 23  1  0  0  0
 22 24  1  0  0  0
 23 48  1  0  0  0
 23 49  1  0  0  0
 24 25  2  0  0  0
 25 26  1  0  0  0
 25 47  1  0  0  0
 26 27  2  0  0  0
  1 50  1  0  0  0
M  END
$$$$
