EDO_1_A_204
  -ISIS-            3D

 10  9  0  0  0  0  0  0  0  0  1 V2000
   16.3970    3.1570    1.2290 C   0  0  0  0  0
   16.0330    2.7040    2.5290 O   0  0  0  0  0
   17.3600    2.2680    0.5380 C   0  0  0  0  0
   16.7790    1.5080   -0.5090 O   0  0  0  0  0
   16.8433    4.1701    1.3321 H   0  0  0  0  0
   15.4804    3.2896    0.6160 H   0  0  0  0  0
   15.4316    3.3311    2.9084 H   0  0  0  0  0
   17.8635    1.5891    1.2580 H   0  0  0  0  0
   18.1704    2.8805    0.0887 H   0  0  0  0  0
   16.2286    0.8441   -0.1139 H   0  0  0  0  0
  1  2  1  0  0  0
  1  3  1  0  0  0
  1  5  1  0  0  0
  1  6  1  0  0  0
  2  7  1  0  0  0
  3  4  1  0  0  0
  3  8  1  0  0  0
  3  9  1  0  0  0
  4 10  1  0  0  0
M  END
$$$$
