@<TRIPOS>MOLECULE
EDO_1_A_202
 10 9 0 0 0
SMALL
NO_CHARGES

@<TRIPOS>ATOM
      1 C1          1.8170   -4.5920    3.8060 C.3    202  EDO202      0.0000
      2 O1          2.2620   -5.6720    4.6280 O.3    202  EDO202      0.0000
      3 C2          2.2370   -4.7190    2.3910 C.3    202  EDO202      0.0000
      4 O2          1.5410   -3.8570    1.5110 O.3    202  EDO202      0.0000
      5 H           2.1882   -3.6341    4.2289 H      202  EDO202      0.0000
      6 H           0.7073   -4.5511    3.8564 H      202  EDO202      0.0000
      7 H           1.8986   -5.5583    5.4966 H      202  EDO202      0.0000
      8 H           2.0539   -5.7596    2.0490 H      202  EDO202      0.0000
      9 H           3.3309   -4.5527    2.2921 H      202  EDO202      0.0000
     10 H           1.9056   -2.9853    1.5900 H      202  EDO202      0.0000
@<TRIPOS>BOND
     1     1     2    1
     2     1     3    1
     3     1     5    1
     4     1     6    1
     5     2     7    1
     6     3     4    1
     7     3     8    1
     8     3     9    1
     9     4    10    1

