@<TRIPOS>MOLECULE
EDO_1_A_203
 10 9 0 0 0
SMALL
NO_CHARGES

@<TRIPOS>ATOM
      1 C1         28.0970   -0.5770    0.3370 C.3    203  EDO203      0.0000
      2 O1         29.1800   -0.1540   -0.4150 O.3    203  EDO203      0.0000
      3 C2         28.0090   -2.0400    0.4170 C.3    203  EDO203      0.0000
      4 O2         28.6070   -2.5760    1.5870 O.3    203  EDO203      0.0000
      5 H          27.1685   -0.1618   -0.1121 H      203  EDO203      0.0000
      6 H          28.1634   -0.1302    1.3506 H      203  EDO203      0.0000
      7 H          28.9707   -0.2294   -1.3370 H      203  EDO203      0.0000
      8 H          28.4425   -2.5275   -0.4815 H      203  EDO203      0.0000
      9 H          26.9399   -2.3416    0.4325 H      203  EDO203      0.0000
     10 H          29.5312   -2.3632    1.5603 H      203  EDO203      0.0000
@<TRIPOS>BOND
     1     1     2    1
     2     1     3    1
     3     1     5    1
     4     1     6    1
     5     2     7    1
     6     3     4    1
     7     3     8    1
     8     3     9    1
     9     4    10    1

