@<TRIPOS>MOLECULE
EDO_1_A_204
 10 9 0 0 0
SMALL
NO_CHARGES

@<TRIPOS>ATOM
      1 C1         16.3970    3.1570    1.2290 C.3    204  EDO204      0.0000
      2 O1         16.0330    2.7040    2.5290 O.3    204  EDO204      0.0000
      3 C2         17.3600    2.2680    0.5380 C.3    204  EDO204      0.0000
      4 O2         16.7790    1.5080   -0.5090 O.3    204  EDO204      0.0000
      5 H          16.8433    4.1701    1.3321 H      204  EDO204      0.0000
      6 H          15.4804    3.2896    0.6160 H      204  EDO204      0.0000
      7 H          15.4316    3.3311    2.9084 H      204  EDO204      0.0000
      8 H          17.8635    1.5891    1.2580 H      204  EDO204      0.0000
      9 H          18.1704    2.8805    0.0887 H      204  EDO204      0.0000
     10 H          16.2286    0.8441   -0.1139 H      204  EDO204      0.0000
@<TRIPOS>BOND
     1     1     2    1
     2     1     3    1
     3     1     5    1
     4     1     6    1
     5     2     7    1
     6     3     4    1
     7     3     8    1
     8     3     9    1
     9     4    10    1

