EDO_1_A_202
  -ISIS-            3D

 10  9  0  0  0  0  0  0  0  0  1 V2000
    1.8170   -4.5920    3.8060 C   0  0  0  0  0
    2.2620   -5.6720    4.6280 O   0  0  0  0  0
    2.2370   -4.7190    2.3910 C   0  0  0  0  0
    1.5410   -3.8570    1.5110 O   0  0  0  0  0
    2.1882   -3.6341    4.2289 H   0  0  0  0  0
    0.7073   -4.5511    3.8564 H   0  0  0  0  0
    1.8986   -5.5583    5.4966 H   0  0  0  0  0
    2.0539   -5.7596    2.0490 H   0  0  0  0  0
    3.3309   -4.5527    2.2921 H   0  0  0  0  0
    1.9056   -2.9853    1.5900 H   0  0  0  0  0
  1  2  1  0  0  0
  1  3  1  0  0  0
  1  5  1  0  0  0
  1  6  1  0  0  0
  2  7  1  0  0  0
  3  4  1  0  0  0
  3  8  1  0  0  0
  3  9  1  0  0  0
  4 10  1  0  0  0
M  END
$$$$
