3A7_1_A_401
  -ISIS-            3D

 59 62  0  0  0  0  0  0  0  0  1 V2000
    1.6270   18.8580  -11.4620 C   0  0  0  0  0
    1.8450   19.3870  -12.7420 C   0  0  0  0  0
    2.0390   20.7540  -12.9010 C   0  0  0  0  0
    2.0270   21.5950  -11.7770 C   0  0  0  0  0
    1.8160   21.0510  -10.4930 C   0  0  0  0  0
    1.6180   19.6780  -10.3350 C   0  0  0  0  0
    3.5490   17.1090  -10.0730 C   0  0  0  0  0
   -1.0140   15.4850   -5.4380 O   0  0  0  0  0
   -0.1980   15.3360   -6.3650 C   0  0  0  0  0
   -0.4100   14.3510   -7.5480 C   0  0  0  0  0
   -1.0440   13.0350   -7.1020 C   0  0  0  0  0
   -2.0920   12.4390   -8.0350 C   0  0  0  0  0
   -2.5760   11.1880   -7.9040 N   0  0  0  0  0
   -3.5330   10.9820   -8.8230 C   0  0  0  0  0
   -3.6390   12.1030   -9.5770 N   0  0  0  0  0
   -2.7640   13.0250   -9.1110 C   0  0  0  0  0
    0.8250   13.9830   -8.3250 N   0  0  0  0  0
    1.5170   15.1900   -8.8070 C   0  0  0  0  0
    1.8680   15.2340  -10.2820 C   0  0  0  0  0
    3.0230   14.2740  -10.6420 C   0  0  0  0  0
    4.3810   14.7090  -10.1410 C   0  0  0  0  0
    5.4540   13.8000  -10.7220 C   0  0  0  0  0
    6.8290   14.1590  -10.1880 C   0  0  0  0  0
    7.1470   15.6400  -10.4350 C   0  0  0  0  0
    6.0260   16.5770   -9.9770 C   0  0  0  0  0
    4.6530   16.1530  -10.5390 C   0  0  0  0  0
    2.2440   16.6440  -10.6000 N   0  0  0  0  0
    1.4300   17.3840  -11.3570 C   0  0  0  0  0
    0.5540   16.8990  -12.0500 O   0  0  0  0  0
    2.2990   23.4690  -12.0190 Br  0  0  0  0  0
    1.8592   18.7238  -13.6227 H   0  0  0  0  0
    2.2028   21.1678  -13.9099 H   0  0  0  0  0
    1.8057   21.7081   -9.6075 H   0  0  0  0  0
    1.4502   19.2526   -9.3320 H   0  0  0  0  0
    3.7990   18.1327  -10.4299 H   0  0  0  0  0
    3.5335   17.1652   -8.9616 H   0  0  0  0  0
    0.7375   15.9469   -6.3508 H   0  0  0  0  0
   -1.1140   14.8768   -8.2342 H   0  0  0  0  0
   -1.5543   13.1833   -6.1238 H   0  0  0  0  0
   -0.2522   12.2768   -6.9071 H   0  0  0  0  0
   -4.1488   10.0961   -9.0186 H   0  0  0  0  0
   -4.4595   12.2683  -10.5935 H   0  0  0  0  0
   -2.7139   14.0123   -9.5838 H   0  0  0  0  0
    0.5499   13.4105   -9.1191 H   0  0  0  0  0
    2.4235   15.3376   -8.1816 H   0  0  0  0  0
    0.8754   16.0792   -8.6121 H   0  0  0  0  0
    0.9660   14.9220  -10.8601 H   0  0  0  0  0
    3.0584   14.1924  -11.7541 H   0  0  0  0  0
    2.7883   13.2503  -10.2700 H   0  0  0  0  0
    4.3993   14.6225   -9.0282 H   0  0  0  0  0
    5.4579   13.8638  -11.8348 H   0  0  0  0  0
    5.2308   12.7374  -10.4683 H   0  0  0  0  0
    7.6067   13.5180  -10.6641 H   0  0  0  0  0
    6.8712   13.9498   -9.0937 H   0  0  0  0  0
    7.3241   15.7943  -11.5252 H   0  0  0  0  0
    8.0993   15.9113   -9.9230 H   0  0  0  0  0
    6.2610   17.6194  -10.2945 H   0  0  0  0  0
    5.9875   16.5865   -8.8630 H   0  0  0  0  0
    4.7023   16.2135  -11.6546 H   0  0  0  0  0
  1  2  2  0  0  0
  1  6  1  0  0  0
  1 28  1  0  0  0
  2  3  1  0  0  0
  2 31  1  0  0  0
  3  4  2  0  0  0
  3 32  1  0  0  0
  4  5  1  0  0  0
  4 30  1  0  0  0
  5  6  2  0  0  0
  5 33  1  0  0  0
  6 34  1  0  0  0
  7 26  1  0  0  0
  7 27  1  0  0  0
  7 35  1  0  0  0
  7 36  1  0  0  0
  8  9  2  0  0  0
  9 10  1  0  0  0
  9 37  1  0  0  0
 10 11  1  0  0  0
 10 17  1  0  0  0
 10 38  1  0  0  0
 11 12  1  0  0  0
 11 39  1  0  0  0
 11 40  1  0  0  0
 12 13  2  0  0  0
 12 16  1  0  0  0
 13 14  1  0  0  0
 14 15  1  0  0  0
 14 41  1  0  0  0
 15 16  1  0  0  0
 15 42  1  0  0  0
 16 43  1  0  0  0
 17 18  1  0  0  0
 17 44  1  0  0  0
 18 19  1  0  0  0
 18 45  1  0  0  0
 18 46  1  0  0  0
 19 20  1  0  0  0
 19 27  1  0  0  0
 19 47  1  0  0  0
 20 21  1  0  0  0
 20 48  1  0  0  0
 20 49  1  0  0  0
 21 22  1  0  0  0
 21 26  1  0  0  0
 21 50  1  0  0  0
 22 23  1  0  0  0
 22 51  1  0  0  0
 22 52  1  0  0  0
 23 24  1  0  0  0
 23 53  1  0  0  0
 23 54  1  0  0  0
 24 25  1  0  0  0
 24 55  1  0  0  0
 24 56  1  0  0  0
 25 26  1  0  0  0
 25 57  1  0  0  0
 25 58  1  0  0  0
 26 59  1  0  0  0
 27 28  1  0  0  0
 28 29  2  0  0  0
M  END
$$$$
