@<TRIPOS>MOLECULE
3A7_1_A_401
 59 62 0 0 0
SMALL
NO_CHARGES

@<TRIPOS>ATOM
      1 C1          1.6270   18.8580  -11.4620 C.ar   401  3A7401      0.0000
      2 C2          1.8450   19.3870  -12.7420 C.ar   401  3A7401      0.0000
      3 C3          2.0390   20.7540  -12.9010 C.ar   401  3A7401      0.0000
      4 C4          2.0270   21.5950  -11.7770 C.ar   401  3A7401      0.0000
      5 C5          1.8160   21.0510  -10.4930 C.ar   401  3A7401      0.0000
      6 C6          1.6180   19.6780  -10.3350 C.ar   401  3A7401      0.0000
      7 C7          3.5490   17.1090  -10.0730 C.3    401  3A7401      0.0000
      8 O1         -1.0140   15.4850   -5.4380 O.2    401  3A7401      0.0000
      9 C18        -0.1980   15.3360   -6.3650 C.2    401  3A7401      0.0000
     10 C17        -0.4100   14.3510   -7.5480 C.3    401  3A7401      0.0000
     11 C19        -1.0440   13.0350   -7.1020 C.3    401  3A7401      0.0000
     12 C20        -2.0920   12.4390   -8.0350 C.ar   401  3A7401      0.0000
     13 N3         -2.5760   11.1880   -7.9040 N.ar   401  3A7401      0.0000
     14 C22        -3.5330   10.9820   -8.8230 C.ar   401  3A7401      0.0000
     15 N2         -3.6390   12.1030   -9.5770 N.ar   401  3A7401      0.0000
     16 C21        -2.7640   13.0250   -9.1110 C.ar   401  3A7401      0.0000
     17 N1          0.8250   13.9830   -8.3250 N.3    401  3A7401      0.0000
     18 C16         1.5170   15.1900   -8.8070 C.3    401  3A7401      0.0000
     19 C15         1.8680   15.2340  -10.2820 C.3    401  3A7401      0.0000
     20 C14         3.0230   14.2740  -10.6420 C.3    401  3A7401      0.0000
     21 C13         4.3810   14.7090  -10.1410 C.3    401  3A7401      0.0000
     22 C12         5.4540   13.8000  -10.7220 C.3    401  3A7401      0.0000
     23 C11         6.8290   14.1590  -10.1880 C.3    401  3A7401      0.0000
     24 C10         7.1470   15.6400  -10.4350 C.3    401  3A7401      0.0000
     25 C9          6.0260   16.5770   -9.9770 C.3    401  3A7401      0.0000
     26 C8          4.6530   16.1530  -10.5390 C.3    401  3A7401      0.0000
     27 N           2.2440   16.6440  -10.6000 N.am   401  3A7401      0.0000
     28 C           1.4300   17.3840  -11.3570 C.2    401  3A7401      0.0000
     29 O           0.5540   16.8990  -12.0500 O.2    401  3A7401      0.0000
     30 BR          2.2990   23.4690  -12.0190 Br     401  3A7401      0.0000
     31 H           1.8592   18.7238  -13.6227 H      401  3A7401      0.0000
     32 H           2.2028   21.1678  -13.9099 H      401  3A7401      0.0000
     33 H           1.8057   21.7081   -9.6075 H      401  3A7401      0.0000
     34 H           1.4502   19.2526   -9.3320 H      401  3A7401      0.0000
     35 H           3.7990   18.1327  -10.4299 H      401  3A7401      0.0000
     36 H           3.5335   17.1652   -8.9616 H      401  3A7401      0.0000
     37 H           0.7375   15.9469   -6.3508 H      401  3A7401      0.0000
     38 H          -1.1140   14.8768   -8.2342 H      401  3A7401      0.0000
     39 H          -1.5543   13.1833   -6.1238 H      401  3A7401      0.0000
     40 H          -0.2522   12.2768   -6.9071 H      401  3A7401      0.0000
     41 H          -4.1488   10.0961   -9.0186 H      401  3A7401      0.0000
     42 H          -4.4595   12.2683  -10.5935 H      401  3A7401      0.0000
     43 H          -2.7139   14.0123   -9.5838 H      401  3A7401      0.0000
     44 H           0.5499   13.4105   -9.1191 H      401  3A7401      0.0000
     45 H           2.4235   15.3376   -8.1816 H      401  3A7401      0.0000
     46 H           0.8754   16.0792   -8.6121 H      401  3A7401      0.0000
     47 H           0.9660   14.9220  -10.8601 H      401  3A7401      0.0000
     48 H           3.0584   14.1924  -11.7541 H      401  3A7401      0.0000
     49 H           2.7883   13.2503  -10.2700 H      401  3A7401      0.0000
     50 H           4.3993   14.6225   -9.0282 H      401  3A7401      0.0000
     51 H           5.4579   13.8638  -11.8348 H      401  3A7401      0.0000
     52 H           5.2308   12.7374  -10.4683 H      401  3A7401      0.0000
     53 H           7.6067   13.5180  -10.6641 H      401  3A7401      0.0000
     54 H           6.8712   13.9498   -9.0937 H      401  3A7401      0.0000
     55 H           7.3241   15.7943  -11.5252 H      401  3A7401      0.0000
     56 H           8.0993   15.9113   -9.9230 H      401  3A7401      0.0000
     57 H           6.2610   17.6194  -10.2945 H      401  3A7401      0.0000
     58 H           5.9875   16.5865   -8.8630 H      401  3A7401      0.0000
     59 H           4.7023   16.2135  -11.6546 H      401  3A7401      0.0000
@<TRIPOS>BOND
     1     1     2   ar
     2     1     6   ar
     3     1    28    1
     4     2     3   ar
     5     2    31    1
     6     3     4   ar
     7     3    32    1
     8     4     5   ar
     9     4    30    1
    10     5     6   ar
    11     5    33    1
    12     6    34    1
    13     7    26    1
    14     7    27    1
    15     7    35    1
    16     7    36    1
    17     8     9    2
    18     9    10    1
    19     9    37    1
    20    10    11    1
    21    10    17    1
    22    10    38    1
    23    11    12    1
    24    11    39    1
    25    11    40    1
    26    12    13   ar
    27    12    16   ar
    28    13    14   ar
    29    14    15   ar
    30    14    41    1
    31    15    16   ar
    32    15    42    1
    33    16    43    1
    34    17    18    1
    35    17    44    1
    36    18    19    1
    37    18    45    1
    38    18    46    1
    39    19    20    1
    40    19    27    1
    41    19    47    1
    42    20    21    1
    43    20    48    1
    44    20    49    1
    45    21    22    1
    46    21    26    1
    47    21    50    1
    48    22    23    1
    49    22    51    1
    50    22    52    1
    51    23    24    1
    52    23    53    1
    53    23    54    1
    54    24    25    1
    55    24    55    1
    56    24    56    1
    57    25    26    1
    58    25    57    1
    59    25    58    1
    60    26    59    1
    61    27    28    1
    62    28    29    2

