@<TRIPOS>MOLECULE
3A7_1_B_401
 59 62 0 0 0
SMALL
NO_CHARGES

@<TRIPOS>ATOM
      1 C1        -26.3650  -15.1350   21.7230 C.ar   401  3A7401      0.0000
      2 C2        -26.5840  -16.4970   21.9360 C.ar   401  3A7401      0.0000
      3 C3        -26.4460  -17.0150   23.2020 C.ar   401  3A7401      0.0000
      4 C4        -26.0980  -16.1590   24.2490 C.ar   401  3A7401      0.0000
      5 C5        -25.8870  -14.7820   24.0460 C.ar   401  3A7401      0.0000
      6 C6        -26.0100  -14.2670   22.7630 C.ar   401  3A7401      0.0000
      7 C7        -28.0450  -12.7740   20.9320 C.3    401  3A7401      0.0000
      8 O1        -22.6870   -9.4570   19.1620 O.2    401  3A7401      0.0000
      9 C18       -23.6770  -10.1830   19.1190 C.2    401  3A7401      0.0000
     10 C17       -24.1140  -10.9020   17.8330 C.3    401  3A7401      0.0000
     11 C19       -23.7490  -10.1530   16.5560 C.3    401  3A7401      0.0000
     12 C20       -23.2980  -10.9980   15.3890 C.ar   401  3A7401      0.0000
     13 N3        -23.2440  -10.5170   14.1360 N.ar   401  3A7401      0.0000
     14 C22       -22.7630  -11.5100   13.3470 C.ar   401  3A7401      0.0000
     15 N2        -22.5570  -12.6090   14.0950 N.ar   401  3A7401      0.0000
     16 C21       -22.8690  -12.3160   15.3710 C.ar   401  3A7401      0.0000
     17 N1        -25.5810  -11.0540   17.7720 N.3    401  3A7401      0.0000
     18 C16       -26.0780  -11.7290   18.9890 C.3    401  3A7401      0.0000
     19 C15       -26.9850  -12.9190   18.7010 C.3    401  3A7401      0.0000
     20 C14       -28.3190  -12.5330   18.0410 C.3    401  3A7401      0.0000
     21 C13       -29.3040  -11.8500   18.9860 C.3    401  3A7401      0.0000
     22 C12       -30.6910  -11.7620   18.3520 C.3    401  3A7401      0.0000
     23 C11       -31.7040  -11.1030   19.2910 C.3    401  3A7401      0.0000
     24 C10       -31.7680  -11.7620   20.6760 C.3    401  3A7401      0.0000
     25 C9        -30.3800  -11.9920   21.2970 C.3    401  3A7401      0.0000
     26 C8        -29.4050  -12.6350   20.2940 C.3    401  3A7401      0.0000
     27 N         -27.1660  -13.5230   20.0270 N.am   401  3A7401      0.0000
     28 C         -26.5140  -14.6680   20.3220 C.2    401  3A7401      0.0000
     29 O         -26.0090  -15.4220   19.4940 O.2    401  3A7401      0.0000
     30 BR        -25.9310  -16.9320   25.9680 Br     401  3A7401      0.0000
     31 H         -26.8629  -17.1618   21.1017 H      401  3A7401      0.0000
     32 H         -26.6118  -18.0914   23.3759 H      401  3A7401      0.0000
     33 H         -25.6183  -14.1218   24.8872 H      401  3A7401      0.0000
     34 H         -25.8219  -13.1974   22.5757 H      401  3A7401      0.0000
     35 H         -28.1807  -13.3154   21.8945 H      401  3A7401      0.0000
     36 H         -27.6275  -11.7803   21.2036 H      401  3A7401      0.0000
     37 H         -24.2517  -10.3350   20.0636 H      401  3A7401      0.0000
     38 H         -23.6317  -11.9055   17.8491 H      401  3A7401      0.0000
     39 H         -22.9055   -9.4578   16.7667 H      401  3A7401      0.0000
     40 H         -24.5898   -9.4970   16.2353 H      401  3A7401      0.0000
     41 H         -22.5705  -11.5123   12.2673 H      401  3A7401      0.0000
     42 H         -22.1172  -13.7697   13.6551 H      401  3A7401      0.0000
     43 H         -22.7491  -13.0823   16.1452 H      401  3A7401      0.0000
     44 H         -25.8097  -11.6137   16.9544 H      401  3A7401      0.0000
     45 H         -26.5885  -10.9650   19.6129 H      401  3A7401      0.0000
     46 H         -25.2241  -12.1172   19.5886 H      401  3A7401      0.0000
     47 H         -26.4459  -13.6118   18.0118 H      401  3A7401      0.0000
     48 H         -28.7872  -13.4700   17.6572 H      401  3A7401      0.0000
     49 H         -28.1416  -11.8940   17.1466 H      401  3A7401      0.0000
     50 H         -28.9412  -10.8168   19.2038 H      401  3A7401      0.0000
     51 H         -31.0540  -12.7805   18.0810 H      401  3A7401      0.0000
     52 H         -30.6370  -11.1825   17.4012 H      401  3A7401      0.0000
     53 H         -32.7157  -11.1139   18.8230 H      401  3A7401      0.0000
     54 H         -31.4312  -10.0291   19.4176 H      401  3A7401      0.0000
     55 H         -32.2820  -12.7469   20.5781 H      401  3A7401      0.0000
     56 H         -32.3957  -11.1481   21.3625 H      401  3A7401      0.0000
     57 H         -30.4793  -12.6280   22.2069 H      401  3A7401      0.0000
     58 H         -29.9706  -11.0116   21.6349 H      401  3A7401      0.0000
     59 H         -29.7874  -13.6607   20.0639 H      401  3A7401      0.0000
@<TRIPOS>BOND
     1     1     2   ar
     2     1     6   ar
     3     1    28    1
     4     2     3   ar
     5     2    31    1
     6     3     4   ar
     7     3    32    1
     8     4     5   ar
     9     4    30    1
    10     5     6   ar
    11     5    33    1
    12     6    34    1
    13     7    26    1
    14     7    27    1
    15     7    35    1
    16     7    36    1
    17     8     9    2
    18     9    10    1
    19     9    37    1
    20    10    11    1
    21    10    17    1
    22    10    38    1
    23    11    12    1
    24    11    39    1
    25    11    40    1
    26    12    13   ar
    27    12    16   ar
    28    13    14   ar
    29    14    15   ar
    30    14    41    1
    31    15    16   ar
    32    15    42    1
    33    16    43    1
    34    17    18    1
    35    17    44    1
    36    18    19    1
    37    18    45    1
    38    18    46    1
    39    19    20    1
    40    19    27    1
    41    19    47    1
    42    20    21    1
    43    20    48    1
    44    20    49    1
    45    21    22    1
    46    21    26    1
    47    21    50    1
    48    22    23    1
    49    22    51    1
    50    22    52    1
    51    23    24    1
    52    23    53    1
    53    23    54    1
    54    24    25    1
    55    24    55    1
    56    24    56    1
    57    25    26    1
    58    25    57    1
    59    25    58    1
    60    26    59    1
    61    27    28    1
    62    28    29    2

