@<TRIPOS>MOLECULE
HBD_1_A_201
 17 17 0 0 0
SMALL
NO_CHARGES

@<TRIPOS>ATOM
      1 C1         10.3150    4.0180   18.7910 C.ar   201  HBD201      0.0000
      2 C2         10.3620    3.0370   19.7760 C.ar   201  HBD201      0.0000
      3 C3         10.7050    1.7320   19.4520 C.ar   201  HBD201      0.0000
      4 C4         11.0010    1.3980   18.1430 C.ar   201  HBD201      0.0000
      5 C5         10.9550    2.3710   17.1580 C.ar   201  HBD201      0.0000
      6 C6         10.6130    3.6690   17.4790 C.ar   201  HBD201      0.0000
      7 C1'         9.9310    5.4630   19.1540 C.2    201  HBD201      0.0000
      8 O1'        10.2180    5.9230   20.2040 O.2    201  HBD201      0.0000
      9 N1'         9.2010    6.3210   18.2360 N.3    201  HBD201      0.0000
     10 O4         11.3420    0.0840   17.8060 O.3    201  HBD201      0.0000
     11 H          10.1260    3.2968   20.8216 H      201  HBD201      0.0000
     12 H          10.7362    0.9710   20.2502 H      201  HBD201      0.0000
     13 H          11.1929    2.1024   16.1151 H      201  HBD201      0.0000
     14 H          10.5870    4.4296   16.6813 H      201  HBD201      0.0000
     15 H           8.9225    5.9542   17.3170 H      201  HBD201      0.0000
     16 H           8.9803    7.2782   18.5385 H      201  HBD201      0.0000
     17 H          11.3488   -0.4915   18.5575 H      201  HBD201      0.0000
@<TRIPOS>BOND
     1     1     2   ar
     2     1     6   ar
     3     1     7    1
     4     2     3   ar
     5     2    11    1
     6     3     4   ar
     7     3    12    1
     8     4     5   ar
     9     4    10    1
    10     5     6   ar
    11     5    13    1
    12     6    14    1
    13     7     8    2
    14     7     9    1
    15     9    15    1
    16     9    16    1
    17    10    17    1

