EDO_1_H_302
  -ISIS-            3D

 10  9  0  0  0  0  0  0  0  0  1 V2000
  -33.5170  -12.9300   50.7450 C   0  0  0  0  0
  -34.0300  -12.4440   51.9890 O   0  0  0  0  0
  -32.5770  -14.0980   51.0110 C   0  0  0  0  0
  -33.2870  -15.1130   51.7280 O   0  0  0  0  0
  -32.9729  -12.1088   50.2351 H   0  0  0  0  0
  -34.3533  -13.2321   50.0794 H   0  0  0  0  0
  -34.7069  -13.0480   52.2674 H   0  0  0  0  0
  -31.6845  -13.7722   51.5866 H   0  0  0  0  0
  -32.2127  -14.5222   50.0531 H   0  0  0  0  0
  -33.2191  -14.9105   52.6523 H   0  0  0  0  0
  1  2  1  0  0  0
  1  3  1  0  0  0
  1  5  1  0  0  0
  1  6  1  0  0  0
  2  7  1  0  0  0
  3  4  1  0  0  0
  3  8  1  0  0  0
  3  9  1  0  0  0
  4 10  1  0  0  0
M  END
$$$$
