EDO_1_A_1003
  -ISIS-            3D

 10  9  0  0  0  0  0  0  0  0  1 V2000
  -39.8880  -40.0520   28.1870 C   0  0  0  0  0
  -39.4060  -41.3790   28.4250 O   0  0  0  0  0
  -39.4750  -39.1510   29.3430 C   0  0  0  0  0
  -38.0500  -39.0170   29.3600 O   0  0  0  0  0
  -40.9949  -40.0733   28.0986 H   0  0  0  0  0
  -39.4830  -39.6687   27.2268 H   0  0  0  0  0
  -39.6773  -41.9270   27.7007 H   0  0  0  0  0
  -39.8266  -39.5595   30.3135 H   0  0  0  0  0
  -39.9256  -38.1437   29.2274 H   0  0  0  0  0
  -37.6993  -39.9001   29.3568 H   0  0  0  0  0
  1  2  1  0  0  0
  1  3  1  0  0  0
  1  5  1  0  0  0
  1  6  1  0  0  0
  2  7  1  0  0  0
  3  4  1  0  0  0
  3  8  1  0  0  0
  3  9  1  0  0  0
  4 10  1  0  0  0
M  END
$$$$
