@<TRIPOS>MOLECULE
EDO_1_H_303
 10 9 0 0 0
SMALL
NO_CHARGES

@<TRIPOS>ATOM
      1 C1        -30.2300   34.0660   41.8530 C.3    303  EDO303      0.0000
      2 O1        -30.8070   34.7410   40.7290 O.3    303  EDO303      0.0000
      3 C2        -28.8240   33.5930   41.5030 C.3    303  EDO303      0.0000
      4 O2        -28.8790   32.6830   40.3970 O.3    303  EDO303      0.0000
      5 H         -30.8682   33.2031   42.1386 H      303  EDO303      0.0000
      6 H         -30.1944   34.7567   42.7219 H      303  EDO303      0.0000
      7 H         -31.6757   35.0317   40.9724 H      303  EDO303      0.0000
      8 H         -28.3596   33.0784   42.3693 H      303  EDO303      0.0000
      9 H         -28.1722   34.4535   41.2434 H      303  EDO303      0.0000
     10 H         -29.4103   33.1063   39.7323 H      303  EDO303      0.0000
@<TRIPOS>BOND
     1     1     2    1
     2     1     3    1
     3     1     5    1
     4     1     6    1
     5     2     7    1
     6     3     4    1
     7     3     8    1
     8     3     9    1
     9     4    10    1

