@<TRIPOS>MOLECULE
EDO_1_A_1002
 10 9 0 0 0
SMALL
NO_CHARGES

@<TRIPOS>ATOM
      1 C1        -42.5220  -38.1850   26.0150 C.3   1002  EDO1002      0.0000
      2 O1        -42.2070  -37.5300   24.7810 O.3   1002  EDO1002      0.0000
      3 C2        -42.8050  -39.6570   25.7450 C.3   1002  EDO1002      0.0000
      4 O2        -41.6440  -40.2670   25.1710 O.3   1002  EDO1002      0.0000
      5 H         -43.4097  -37.7027   26.4762 H     1002  EDO1002      0.0000
      6 H         -41.6747  -38.0758   26.7246 H     1002  EDO1002      0.0000
      7 H         -42.0387  -36.6158   24.9660 H     1002  EDO1002      0.0000
      8 H         -43.6670  -39.7745   25.0553 H     1002  EDO1002      0.0000
      9 H         -43.0615  -40.1845   26.6867 H     1002  EDO1002      0.0000
     10 H         -41.3750  -39.7026   24.4551 H     1002  EDO1002      0.0000
@<TRIPOS>BOND
     1     1     2    1
     2     1     3    1
     3     1     5    1
     4     1     6    1
     5     2     7    1
     6     3     4    1
     7     3     8    1
     8     3     9    1
     9     4    10    1

