@<TRIPOS>MOLECULE
EDO_1_H_302
 10 9 0 0 0
SMALL
NO_CHARGES

@<TRIPOS>ATOM
      1 C1        -33.5170  -12.9300   50.7450 C.3    302  EDO302      0.0000
      2 O1        -34.0300  -12.4440   51.9890 O.3    302  EDO302      0.0000
      3 C2        -32.5770  -14.0980   51.0110 C.3    302  EDO302      0.0000
      4 O2        -33.2870  -15.1130   51.7280 O.3    302  EDO302      0.0000
      5 H         -32.9729  -12.1088   50.2351 H      302  EDO302      0.0000
      6 H         -34.3533  -13.2321   50.0794 H      302  EDO302      0.0000
      7 H         -34.7069  -13.0480   52.2674 H      302  EDO302      0.0000
      8 H         -31.6845  -13.7722   51.5866 H      302  EDO302      0.0000
      9 H         -32.2127  -14.5222   50.0531 H      302  EDO302      0.0000
     10 H         -33.2191  -14.9105   52.6523 H      302  EDO302      0.0000
@<TRIPOS>BOND
     1     1     2    1
     2     1     3    1
     3     1     5    1
     4     1     6    1
     5     2     7    1
     6     3     4    1
     7     3     8    1
     8     3     9    1
     9     4    10    1

