@<TRIPOS>MOLECULE
PGE_1_L_303
 17 16 0 0 0
SMALL
NO_CHARGES

@<TRIPOS>ATOM
      1 C1        -38.4340   45.7450   49.0850 C.3    303  PGE303      0.0000
      2 O1        -39.2460   45.2570   50.1430 O.3    303  PGE303      0.0000
      3 C2        -38.0040   47.1640   49.3910 C.3    303  PGE303      0.0000
      4 O2        -37.4720   47.7490   48.2200 O.3    303  PGE303      0.0000
      5 C3        -37.8960   49.0820   48.0270 C.3    303  PGE303      0.0000
      6 C4        -37.3390   49.5930   46.7130 C.3    303  PGE303      0.0000
      7 O3        -36.1710   48.8640   46.3940 O.3    303  PGE303      0.0000
      8 H         -39.0176   45.7162   48.1400 H      303  PGE303      0.0000
      9 H         -37.5478   45.0893   48.9517 H      303  PGE303      0.0000
     10 H         -39.4911   44.3641   49.9425 H      303  PGE303      0.0000
     11 H         -37.2429   47.1875   50.1979 H      303  PGE303      0.0000
     12 H         -38.8824   47.7385   49.7533 H      303  PGE303      0.0000
     13 H         -37.5208   49.7084   48.8642 H      303  PGE303      0.0000
     14 H         -39.0041   49.1503   48.0205 H      303  PGE303      0.0000
     15 H         -37.1144   50.6786   46.7705 H      303  PGE303      0.0000
     16 H         -38.0860   49.4488   45.9032 H      303  PGE303      0.0000
     17 H         -35.8461   49.1623   45.5535 H      303  PGE303      0.0000
@<TRIPOS>BOND
     1     1     2    1
     2     1     3    1
     3     1     8    1
     4     1     9    1
     5     2    10    1
     6     3     4    1
     7     3    11    1
     8     3    12    1
     9     4     5    1
    10     5     6    1
    11     5    13    1
    12     5    14    1
    13     6     7    1
    14     6    15    1
    15     6    16    1
    16     7    17    1

