PGE_1_L_303
  -ISIS-            3D

 17 16  0  0  0  0  0  0  0  0  1 V2000
  -38.4340   45.7450   49.0850 C   0  0  0  0  0
  -39.2460   45.2570   50.1430 O   0  0  0  0  0
  -38.0040   47.1640   49.3910 C   0  0  0  0  0
  -37.4720   47.7490   48.2200 O   0  0  0  0  0
  -37.8960   49.0820   48.0270 C   0  0  0  0  0
  -37.3390   49.5930   46.7130 C   0  0  0  0  0
  -36.1710   48.8640   46.3940 O   0  0  0  0  0
  -39.0176   45.7162   48.1400 H   0  0  0  0  0
  -37.5478   45.0893   48.9517 H   0  0  0  0  0
  -39.4911   44.3641   49.9425 H   0  0  0  0  0
  -37.2429   47.1875   50.1979 H   0  0  0  0  0
  -38.8824   47.7385   49.7533 H   0  0  0  0  0
  -37.5208   49.7084   48.8642 H   0  0  0  0  0
  -39.0041   49.1503   48.0205 H   0  0  0  0  0
  -37.1144   50.6786   46.7705 H   0  0  0  0  0
  -38.0860   49.4488   45.9032 H   0  0  0  0  0
  -35.8461   49.1623   45.5535 H   0  0  0  0  0
  1  2  1  0  0  0
  1  3  1  0  0  0
  1  8  1  0  0  0
  1  9  1  0  0  0
  2 10  1  0  0  0
  3  4  1  0  0  0
  3 11  1  0  0  0
  3 12  1  0  0  0
  4  5  1  0  0  0
  5  6  1  0  0  0
  5 13  1  0  0  0
  5 14  1  0  0  0
  6  7  1  0  0  0
  6 15  1  0  0  0
  6 16  1  0  0  0
  7 17  1  0  0  0
M  END
$$$$
