@<TRIPOS>MOLECULE
DMS_1_A_402
 10 9 0 0 0
SMALL
NO_CHARGES

@<TRIPOS>ATOM
      1 S           6.1660   -1.0040   -6.2330 S.o    402  DMS402      0.0000
      2 O           7.0810   -0.7580   -7.3770 O.2    402  DMS402      0.0000
      3 C1          7.1400   -0.8920   -4.7270 C.3    402  DMS402      0.0000
      4 C2          5.8230   -2.7410   -6.1880 C.3    402  DMS402      0.0000
      5 H           6.5174   -1.1823   -3.8561 H      402  DMS402      0.0000
      6 H           7.4841    0.1538   -4.5918 H      402  DMS402      0.0000
      7 H           8.0234   -1.5599   -4.7918 H      402  DMS402      0.0000
      8 H           5.2349   -2.9850   -5.2798 H      402  DMS402      0.0000
      9 H           6.7688   -3.3207   -6.1827 H      402  DMS402      0.0000
     10 H           5.2320   -3.0219   -7.0837 H      402  DMS402      0.0000
@<TRIPOS>BOND
     1     1     2    2
     2     1     3    1
     3     1     4    1
     4     3     5    1
     5     3     6    1
     6     3     7    1
     7     4     8    1
     8     4     9    1
     9     4    10    1

