DMS_2_A_401
  -ISIS-            3D

 10  9  0  0  0  0  0  0  0  0  1 V2000
   -6.9270  -28.0080  -21.5860 S   0  0  0  0  0
   -7.6360  -27.0080  -22.4010 O   0  0  0  0  0
   -5.6410  -28.6360  -22.6460 C   0  0  0  0  0
   -5.9270  -27.0860  -20.4840 C   0  0  0  0  0
   -4.9576  -29.2861  -22.0623 H   0  0  0  0  0
   -5.0640  -27.8001  -23.0922 H   0  0  0  0  0
   -6.0972  -29.2357  -23.4601 H   0  0  0  0  0
   -5.2387  -27.7652  -19.9406 H   0  0  0  0  0
   -6.5725  -26.5688  -19.7449 H   0  0  0  0  0
   -5.3341  -26.3279  -21.0359 H   0  0  0  0  0
  1  2  2  0  0  0
  1  3  1  0  0  0
  1  4  1  0  0  0
  3  5  1  0  0  0
  3  6  1  0  0  0
  3  7  1  0  0  0
  4  8  1  0  0  0
  4  9  1  0  0  0
  4 10  1  0  0  0
M  END
$$$$
