DMS_1_A_403
  -ISIS-            3D

 10  9  0  0  0  0  0  0  0  0  1 V2000
    2.5310  -18.7130    8.0340 S   0  0  0  0  0
    3.7760  -18.8380    8.9540 O   0  0  0  0  0
    1.1990  -18.3080    9.1430 C   0  0  0  0  0
    2.0440  -20.3600    7.7000 C   0  0  0  0  0
    0.2305  -18.3627    8.6048 H   0  0  0  0  0
    1.3398  -17.2744    9.5205 H   0  0  0  0  0
    1.1841  -19.0069   10.0038 H   0  0  0  0  0
    1.0576  -20.3683    7.1932 H   0  0  0  0  0
    1.9802  -20.9474    8.6387 H   0  0  0  0  0
    2.7904  -20.8351    7.0307 H   0  0  0  0  0
  1  2  2  0  0  0
  1  3  1  0  0  0
  1  4  1  0  0  0
  3  5  1  0  0  0
  3  6  1  0  0  0
  3  7  1  0  0  0
  4  8  1  0  0  0
  4  9  1  0  0  0
  4 10  1  0  0  0
M  END
$$$$
