DMS_2_A_401
  -ISIS-            3D

 10  9  0  0  0  0  0  0  0  0  1 V2000
   -6.9990  -28.1120  -21.4200 S   0  0  0  0  0
   -7.6940  -27.1690  -22.2890 O   0  0  0  0  0
   -5.7450  -28.8270  -22.4690 C   0  0  0  0  0
   -5.9850  -27.1320  -20.3810 C   0  0  0  0  0
   -5.0594  -29.4509  -21.8599 H   0  0  0  0  0
   -5.1646  -28.0290  -22.9761 H   0  0  0  0  0
   -6.2282  -29.4675  -23.2350 H   0  0  0  0  0
   -5.2993  -27.7833  -19.8015 H   0  0  0  0  0
   -6.6217  -26.5645  -19.6718 H   0  0  0  0  0
   -5.3885  -26.4158  -20.9826 H   0  0  0  0  0
  1  2  2  0  0  0
  1  3  1  0  0  0
  1  4  1  0  0  0
  3  5  1  0  0  0
  3  6  1  0  0  0
  3  7  1  0  0  0
  4  8  1  0  0  0
  4  9  1  0  0  0
  4 10  1  0  0  0
M  END
$$$$
