@<TRIPOS>MOLECULE
DMS_2_A_402
 10 9 0 0 0
SMALL
NO_CHARGES

@<TRIPOS>ATOM
      1 S          -6.1830   -1.0390    6.2980 S.o    402  DMS402      0.0000
      2 O          -7.2010   -0.8600    7.3620 O.2    402  DMS402      0.0000
      3 C1         -7.0420   -0.9280    4.7180 C.3    402  DMS402      0.0000
      4 C2         -5.7960   -2.7670    6.2290 C.3    402  DMS402      0.0000
      5 H          -6.3442   -1.1814    3.8937 H      402  DMS402      0.0000
      6 H          -7.4079    0.1092    4.5744 H      402  DMS402      0.0000
      7 H          -7.9059   -1.6234    4.7015 H      402  DMS402      0.0000
      8 H          -5.1335   -2.9705    5.3627 H      402  DMS402      0.0000
      9 H          -6.7237   -3.3673    6.1340 H      402  DMS402      0.0000
     10 H          -5.2690   -3.0622    7.1594 H      402  DMS402      0.0000
@<TRIPOS>BOND
     1     1     2    2
     2     1     3    1
     3     1     4    1
     4     3     5    1
     5     3     6    1
     6     3     7    1
     7     4     8    1
     8     4     9    1
     9     4    10    1

