DMS_2_A_403
  -ISIS-            3D

 10  9  0  0  0  0  0  0  0  0  1 V2000
   -2.4470  -18.8490   -8.0280 S   0  0  0  0  0
   -3.7340  -18.8640   -8.9180 O   0  0  0  0  0
   -1.1460  -18.2390   -9.0830 C   0  0  0  0  0
   -1.9180  -20.5260   -8.0330 C   0  0  0  0  0
   -0.1631  -18.3741   -8.5871 H   0  0  0  0  0
   -1.3058  -17.1575   -9.2699 H   0  0  0  0  0
   -1.1489  -18.7755  -10.0541 H   0  0  0  0  0
   -0.9117  -20.6078   -7.5738 H   0  0  0  0  0
   -1.8842  -20.9234   -9.0684 H   0  0  0  0  0
   -2.6287  -21.1364   -7.4391 H   0  0  0  0  0
  1  2  2  0  0  0
  1  3  1  0  0  0
  1  4  1  0  0  0
  3  5  1  0  0  0
  3  6  1  0  0  0
  3  7  1  0  0  0
  4  8  1  0  0  0
  4  9  1  0  0  0
  4 10  1  0  0  0
M  END
$$$$
