@<TRIPOS>MOLECULE
DMS_2_A_401
 10 9 0 0 0
SMALL
NO_CHARGES

@<TRIPOS>ATOM
      1 S          -6.9990  -28.1120  -21.4200 S.o    401  DMS401      0.0000
      2 O          -7.6940  -27.1690  -22.2890 O.2    401  DMS401      0.0000
      3 C1         -5.7450  -28.8270  -22.4690 C.3    401  DMS401      0.0000
      4 C2         -5.9850  -27.1320  -20.3810 C.3    401  DMS401      0.0000
      5 H          -5.0594  -29.4509  -21.8599 H      401  DMS401      0.0000
      6 H          -5.1646  -28.0290  -22.9761 H      401  DMS401      0.0000
      7 H          -6.2282  -29.4675  -23.2350 H      401  DMS401      0.0000
      8 H          -5.2993  -27.7833  -19.8015 H      401  DMS401      0.0000
      9 H          -6.6217  -26.5645  -19.6718 H      401  DMS401      0.0000
     10 H          -5.3885  -26.4158  -20.9826 H      401  DMS401      0.0000
@<TRIPOS>BOND
     1     1     2    2
     2     1     3    1
     3     1     4    1
     4     3     5    1
     5     3     6    1
     6     3     7    1
     7     4     8    1
     8     4     9    1
     9     4    10    1

