@<TRIPOS>MOLECULE
DMS_1_A_403
 10 9 0 0 0
SMALL
NO_CHARGES

@<TRIPOS>ATOM
      1 S           2.3270  -18.9860    8.0710 S.o    403  DMS403      0.0000
      2 O           3.6160  -18.5950    8.7840 O.2    403  DMS403      0.0000
      3 C1          1.0180  -18.2220    9.0120 C.3    403  DMS403      0.0000
      4 C2          2.0310  -20.6620    8.5980 C.3    403  DMS403      0.0000
      5 H           0.0353  -18.6018    8.6655 H      403  DMS403      0.0000
      6 H           1.0516  -17.1238    8.8593 H      403  DMS403      0.0000
      7 H           1.1395  -18.4402   10.0926 H      403  DMS403      0.0000
      8 H           1.0234  -20.9878    8.2666 H      403  DMS403      0.0000
      9 H           2.1002  -20.7395    9.7022 H      403  DMS403      0.0000
     10 H           2.7905  -21.3285    8.1410 H      403  DMS403      0.0000
@<TRIPOS>BOND
     1     1     2    2
     2     1     3    1
     3     1     4    1
     4     3     5    1
     5     3     6    1
     6     3     7    1
     7     4     8    1
     8     4     9    1
     9     4    10    1

