@<TRIPOS>MOLECULE
DMS_2_A_401
 10 9 0 0 0
SMALL
NO_CHARGES

@<TRIPOS>ATOM
      1 S          -6.8370  -28.0820  -21.4590 S.o    401  DMS401      0.0000
      2 O          -7.6490  -27.1560  -22.2730 O.2    401  DMS401      0.0000
      3 C1         -5.5630  -28.6780  -22.5470 C.3    401  DMS401      0.0000
      4 C2         -5.8290  -27.0350  -20.4520 C.3    401  DMS401      0.0000
      5 H          -4.8131  -29.2542  -21.9673 H      401  DMS401      0.0000
      6 H          -5.0626  -27.8305  -23.0591 H      401  DMS401      0.0000
      7 H          -6.0149  -29.3447  -23.3095 H      401  DMS401      0.0000
      8 H          -5.0710  -27.6434  -19.9173 H      401  DMS401      0.0000
      9 H          -6.4661  -26.5211  -19.7036 H      401  DMS401      0.0000
     10 H          -5.3170  -26.2722  -21.0743 H      401  DMS401      0.0000
@<TRIPOS>BOND
     1     1     2    2
     2     1     3    1
     3     1     4    1
     4     3     5    1
     5     3     6    1
     6     3     7    1
     7     4     8    1
     8     4     9    1
     9     4    10    1

