DMS_1_A_1005
  -ISIS-            3D

 10  9  0  0  0  0  0  0  0  0  1 V2000
   21.2250   14.6220    8.1180 S   0  0  0  0  0
   22.6870   14.4830    7.9500 O   0  0  0  0  0
   20.7800   13.1790    9.0310 C   0  0  0  0  0
   20.5630   14.0780    6.5800 C   0  0  0  0  0
   19.6761   13.0730    9.0572 H   0  0  0  0  0
   21.1502   13.2759   10.0722 H   0  0  0  0  0
   21.2265   12.2710    8.5760 H   0  0  0  0  0
   19.4637   13.9549    6.6629 H   0  0  0  0  0
   21.0193   13.1146    6.2725 H   0  0  0  0  0
   20.7753   14.8383    5.8006 H   0  0  0  0  0
  1  2  2  0  0  0
  1  3  1  0  0  0
  1  4  1  0  0  0
  3  5  1  0  0  0
  3  6  1  0  0  0
  3  7  1  0  0  0
  4  8  1  0  0  0
  4  9  1  0  0  0
  4 10  1  0  0  0
M  END
$$$$
