@<TRIPOS>MOLECULE
DMS_1_A_1005
 10 9 0 0 0
SMALL
NO_CHARGES

@<TRIPOS>ATOM
      1 S          21.2250   14.6220    8.1180 S.o   1005  DMS1005      0.0000
      2 O          22.6870   14.4830    7.9500 O.2   1005  DMS1005      0.0000
      3 C1         20.7800   13.1790    9.0310 C.3   1005  DMS1005      0.0000
      4 C2         20.5630   14.0780    6.5800 C.3   1005  DMS1005      0.0000
      5 H          19.6761   13.0730    9.0572 H     1005  DMS1005      0.0000
      6 H          21.1502   13.2759   10.0722 H     1005  DMS1005      0.0000
      7 H          21.2265   12.2710    8.5760 H     1005  DMS1005      0.0000
      8 H          19.4637   13.9549    6.6629 H     1005  DMS1005      0.0000
      9 H          21.0193   13.1146    6.2725 H     1005  DMS1005      0.0000
     10 H          20.7753   14.8383    5.8006 H     1005  DMS1005      0.0000
@<TRIPOS>BOND
     1     1     2    2
     2     1     3    1
     3     1     4    1
     4     3     5    1
     5     3     6    1
     6     3     7    1
     7     4     8    1
     8     4     9    1
     9     4    10    1

