@<TRIPOS>MOLECULE
DMS_1_A_1002
 10 9 0 0 0
SMALL
NO_CHARGES

@<TRIPOS>ATOM
      1 S           7.0460  -28.0320   21.5520 S.o   1002  DMS1002      0.0000
      2 O           7.5630  -26.9540   22.3830 O.2   1002  DMS1002      0.0000
      3 C1          5.7280  -28.6800   22.5390 C.3   1002  DMS1002      0.0000
      4 C2          6.0580  -27.2720   20.3030 C.3   1002  DMS1002      0.0000
      5 H           5.1450  -29.4177   21.9505 H     1002  DMS1002      0.0000
      6 H           5.0549  -27.8653   22.8768 H     1002  DMS1002      0.0000
      7 H           6.1511  -29.1902   23.4286 H     1002  DMS1002      0.0000
      8 H           5.4834  -28.0458   19.7541 H     1002  DMS1002      0.0000
      9 H           6.7176  -26.7423   19.5854 H     1002  DMS1002      0.0000
     10 H           5.3551  -26.5408   20.7525 H     1002  DMS1002      0.0000
@<TRIPOS>BOND
     1     1     2    2
     2     1     3    1
     3     1     4    1
     4     3     5    1
     5     3     6    1
     6     3     7    1
     7     4     8    1
     8     4     9    1
     9     4    10    1

