@<TRIPOS>MOLECULE
DMS_2_A_1003
 10 9 0 0 0
SMALL
NO_CHARGES

@<TRIPOS>ATOM
      1 S          -6.1850   -1.0210    6.2390 S.o   1003  DMS1003      0.0000
      2 O          -7.0440   -0.6780    7.3730 O.2   1003  DMS1003      0.0000
      3 C1         -7.2670   -1.0270    4.8220 C.3   1003  DMS1003      0.0000
      4 C2         -5.8740   -2.7500    6.3670 C.3   1003  DMS1003      0.0000
      5 H          -6.7228   -1.4163    3.9373 H     1003  DMS1003      0.0000
      6 H          -7.6010    0.0095    4.6106 H     1003  DMS1003      0.0000
      7 H          -8.1556   -1.6618    5.0177 H     1003  DMS1003      0.0000
      8 H          -5.3523   -3.1066    5.4554 H     1003  DMS1003      0.0000
      9 H          -6.8256   -3.3073    6.4877 H     1003  DMS1003      0.0000
     10 H          -5.2278   -2.9441    7.2475 H     1003  DMS1003      0.0000
@<TRIPOS>BOND
     1     1     2    2
     2     1     3    1
     3     1     4    1
     4     3     5    1
     5     3     6    1
     6     3     7    1
     7     4     8    1
     8     4     9    1
     9     4    10    1

