@<TRIPOS>MOLECULE
DMS_1_B_401
 10 9 0 0 0
SMALL
NO_CHARGES

@<TRIPOS>ATOM
      1 S          28.7920   47.4680   25.2450 S.o    401  DMS401      0.0000
      2 O          28.4490   48.6420   26.0440 O.2    401  DMS401      0.0000
      3 C1         30.2120   46.7710   26.0250 C.3    401  DMS401      0.0000
      4 C2         29.5450   48.0420   23.7460 C.3    401  DMS401      0.0000
      5 H          30.6098   45.9393   25.4081 H      401  DMS401      0.0000
      6 H          29.9278   46.3726   27.0204 H      401  DMS401      0.0000
      7 H          30.9995   47.5409   26.1557 H      401  DMS401      0.0000
      8 H          29.9472   47.1809   23.1738 H      401  DMS401      0.0000
      9 H          30.3675   48.7502   23.9740 H      401  DMS401      0.0000
     10 H          28.7834   48.5594   23.1271 H      401  DMS401      0.0000
@<TRIPOS>BOND
     1     1     2    2
     2     1     3    1
     3     1     4    1
     4     3     5    1
     5     3     6    1
     6     3     7    1
     7     4     8    1
     8     4     9    1
     9     4    10    1

