DMS_2_A_502
  -ISIS-            3D

 10  9  0  0  0  0  0  0  0  0  1 V2000
   -2.4140  -18.9260   -8.1220 S   0  0  0  0  0
   -1.4830  -18.4460   -9.2070 O   0  0  0  0  0
   -3.9580  -18.8110   -8.8430 C   0  0  0  0  0
   -2.2200  -20.6010   -7.9730 C   0  0  0  0  0
   -4.7257  -19.2441   -8.1696 H   0  0  0  0  0
   -3.9812  -19.3507   -9.8119 H   0  0  0  0  0
   -4.2090  -17.7454   -9.0222 H   0  0  0  0  0
   -2.9899  -21.0158   -7.2907 H   0  0  0  0  0
   -1.2190  -20.8252   -7.5511 H   0  0  0  0  0
   -2.3076  -21.0968   -8.9615 H   0  0  0  0  0
  1  2  2  0  0  0
  1  3  1  0  0  0
  1  4  1  0  0  0
  3  5  1  0  0  0
  3  6  1  0  0  0
  3  7  1  0  0  0
  4  8  1  0  0  0
  4  9  1  0  0  0
  4 10  1  0  0  0
M  END
$$$$
