@<TRIPOS>MOLECULE
DMS_1_A_501
 10 9 0 0 0
SMALL
NO_CHARGES

@<TRIPOS>ATOM
      1 S           6.8820  -28.1480   21.6410 S.o    501  DMS501      0.0000
      2 O           7.8050  -27.2110   22.3090 O.2    501  DMS501      0.0000
      3 C1          5.5600  -28.4990   22.6930 C.3    501  DMS501      0.0000
      4 C2          6.0320  -27.3570   20.3870 C.3    501  DMS501      0.0000
      5 H           4.8303  -29.1610   22.1833 H      501  DMS501      0.0000
      6 H           5.0507  -27.5646   23.0061 H      501  DMS501      0.0000
      7 H           5.9355  -29.0196   23.5978 H      501  DMS501      0.0000
      8 H           5.2941  -28.0466   19.9285 H      501  DMS501      0.0000
      9 H           6.7457  -27.0343   19.6015 H      501  DMS501      0.0000
     10 H           5.5037  -26.4620   20.7748 H      501  DMS501      0.0000
@<TRIPOS>BOND
     1     1     2    2
     2     1     3    1
     3     1     4    1
     4     3     5    1
     5     3     6    1
     6     3     7    1
     7     4     8    1
     8     4     9    1
     9     4    10    1

