@<TRIPOS>MOLECULE
DMS_2_A_502
 10 9 0 0 0
SMALL
NO_CHARGES

@<TRIPOS>ATOM
      1 S          -7.0090  -28.2170  -21.6190 S.o    502  DMS502      0.0000
      2 O          -7.8440  -27.2070  -22.3320 O.2    502  DMS502      0.0000
      3 C1         -5.6930  -28.7850  -22.7330 C.3    502  DMS502      0.0000
      4 C2         -6.0260  -27.4060  -20.3360 C.3    502  DMS502      0.0000
      5 H          -5.0291  -29.4906  -22.1931 H      502  DMS502      0.0000
      6 H          -5.1021  -27.9169  -23.0905 H      502  DMS502      0.0000
      7 H          -6.1478  -29.3032  -23.6018 H      502  DMS502      0.0000
      8 H          -5.3559  -28.1485  -19.8566 H      502  DMS502      0.0000
      9 H          -6.7050  -26.9789  -19.5700 H      502  DMS502      0.0000
     10 H          -5.4197  -26.5923  -20.7841 H      502  DMS502      0.0000
@<TRIPOS>BOND
     1     1     2    2
     2     1     3    1
     3     1     4    1
     4     3     5    1
     5     3     6    1
     6     3     7    1
     7     4     8    1
     8     4     9    1
     9     4    10    1

