DMS_1_A_505
  -ISIS-            3D

 10  9  0  0  0  0  0  0  0  0  1 V2000
   20.6800  -15.9830    4.9360 S   0  0  0  0  0
   22.0050  -15.3220    5.1470 O   0  0  0  0  0
   20.8680  -17.4170    3.8400 C   0  0  0  0  0
   20.1750  -16.8190    6.4660 C   0  0  0  0  0
   19.8944  -17.9392    3.7418 H   0  0  0  0  0
   21.6245  -18.1130    4.2571 H   0  0  0  0  0
   21.1992  -17.0706    2.8397 H   0  0  0  0  0
   19.2216  -17.3597    6.2960 H   0  0  0  0  0
   20.0285  -16.0626    7.2639 H   0  0  0  0  0
   20.9604  -17.5369    6.7797 H   0  0  0  0  0
  1  2  2  0  0  0
  1  3  1  0  0  0
  1  4  1  0  0  0
  3  5  1  0  0  0
  3  6  1  0  0  0
  3  7  1  0  0  0
  4  8  1  0  0  0
  4  9  1  0  0  0
  4 10  1  0  0  0
M  END
$$$$
