@<TRIPOS>MOLECULE
DMS_2_A_504
 10 9 0 0 0
SMALL
NO_CHARGES

@<TRIPOS>ATOM
      1 S          -2.4070  -19.0510   -8.3350 S.o    504  DMS504      0.0000
      2 O          -1.2780  -18.2780   -8.9430 O.2    504  DMS504      0.0000
      3 C1         -3.9730  -18.5590   -9.1080 C.3    504  DMS504      0.0000
      4 C2         -2.3580  -20.7780   -8.8930 C.3    504  DMS504      0.0000
      5 H          -4.7993  -19.1769   -8.7009 H      504  DMS504      0.0000
      6 H          -3.9109  -18.6955  -10.2071 H      504  DMS504      0.0000
      7 H          -4.1711  -17.4913   -8.8819 H      504  DMS504      0.0000
      8 H          -3.2359  -21.3240   -8.4911 H      504  DMS504      0.0000
      9 H          -1.4294  -21.2552   -8.5186 H      504  DMS504      0.0000
     10 H          -2.3690  -20.8170  -10.0016 H      504  DMS504      0.0000
@<TRIPOS>BOND
     1     1     2    2
     2     1     3    1
     3     1     4    1
     4     3     5    1
     5     3     6    1
     6     3     7    1
     7     4     8    1
     8     4     9    1
     9     4    10    1

