@<TRIPOS>MOLECULE
DMS_2_A_505
 10 9 0 0 0
SMALL
NO_CHARGES

@<TRIPOS>ATOM
      1 S         -20.6800  -15.9830   -4.9360 S.o    505  DMS505      0.0000
      2 O         -22.0050  -15.3220   -5.1470 O.2    505  DMS505      0.0000
      3 C1        -20.8680  -17.4170   -3.8400 C.3    505  DMS505      0.0000
      4 C2        -20.1750  -16.8190   -6.4660 C.3    505  DMS505      0.0000
      5 H         -19.8944  -17.9392   -3.7418 H      505  DMS505      0.0000
      6 H         -21.6245  -18.1130   -4.2571 H      505  DMS505      0.0000
      7 H         -21.1992  -17.0706   -2.8397 H      505  DMS505      0.0000
      8 H         -19.2216  -17.3597   -6.2960 H      505  DMS505      0.0000
      9 H         -20.0285  -16.0626   -7.2639 H      505  DMS505      0.0000
     10 H         -20.9604  -17.5369   -6.7797 H      505  DMS505      0.0000
@<TRIPOS>BOND
     1     1     2    2
     2     1     3    1
     3     1     4    1
     4     3     5    1
     5     3     6    1
     6     3     7    1
     7     4     8    1
     8     4     9    1
     9     4    10    1

