@<TRIPOS>MOLECULE
DMS_2_A_503
 10 9 0 0 0
SMALL
NO_CHARGES

@<TRIPOS>ATOM
      1 S          -6.1200   -1.0750    6.1590 S.o    503  DMS503      0.0000
      2 O          -6.9330   -0.7680    7.3740 O.2    503  DMS503      0.0000
      3 C1         -5.6010   -2.8150    6.1700 C.3    503  DMS503      0.0000
      4 C2         -7.1650   -1.0430    4.6750 C.3    503  DMS503      0.0000
      5 H          -5.0361   -3.0392    5.2422 H      503  DMS503      0.0000
      6 H          -6.4926   -3.4721    6.2317 H      503  DMS503      0.0000
      7 H          -4.9486   -2.9962    7.0486 H      503  DMS503      0.0000
      8 H          -6.5575   -1.3153    3.7879 H      503  DMS503      0.0000
      9 H          -7.5747   -0.0213    4.5384 H      503  DMS503      0.0000
     10 H          -8.0013   -1.7627    4.7894 H      503  DMS503      0.0000
@<TRIPOS>BOND
     1     1     2    2
     2     1     3    1
     3     1     4    1
     4     3     5    1
     5     3     6    1
     6     3     7    1
     7     4     8    1
     8     4     9    1
     9     4    10    1

