@<TRIPOS>MOLECULE
CLU_2_A_401
 21 22 0 0 0
SMALL
NO_CHARGES

@<TRIPOS>ATOM
      1 CL1       -16.3360  -24.9920   -1.7400 Cl     401  CLU401      0.0000
      2 CAM       -16.6920  -25.6290   -5.6350 C.ar   401  CLU401      0.0000
      3 CAE       -17.8030  -24.8540   -5.9970 C.ar   401  CLU401      0.0000
      4 CAC       -18.4600  -24.1140   -5.0190 C.ar   401  CLU401      0.0000
      5 CAD       -17.9910  -24.1590   -3.7010 C.ar   401  CLU401      0.0000
      6 CAN       -16.1720  -25.7380   -4.3290 C.ar   401  CLU401      0.0000
      7 CAL       -16.8820  -24.9670   -3.3880 C.ar   401  CLU401      0.0000
      8 CL2       -15.9200  -26.5290   -6.8580 Cl     401  CLU401      0.0000
      9 NAJ       -15.0010  -26.5550   -4.0110 N.pl3  401  CLU401      0.0000
     10 CAK       -13.6620  -26.0470   -3.7530 C.ar   401  CLU401      0.0000
     11 NAI       -13.3500  -24.7660   -3.7420 N.ar   401  CLU401      0.0000
     12 CAG       -11.9690  -24.6030   -3.2140 C.ar   401  CLU401      0.0000
     13 CAF       -11.3590  -26.0020   -3.2270 C.ar   401  CLU401      0.0000
     14 NAH       -12.5340  -26.8810   -3.4680 N.ar   401  CLU401      0.0000
     15 H         -18.1588  -24.8251   -7.0403 H      401  CLU401      0.0000
     16 H         -19.3354  -23.4959   -5.2788 H      401  CLU401      0.0000
     17 H         -18.4953  -23.5675   -2.9189 H      401  CLU401      0.0000
     18 H         -15.1334  -27.5739   -4.0000 H      401  CLU401      0.0000
     19 H         -11.4686  -23.6505   -2.9984 H      401  CLU401      0.0000
     20 H         -10.3600  -26.4012   -3.0271 H      401  CLU401      0.0000
     21 H         -12.5138  -28.1968   -3.4996 H      401  CLU401      0.0000
@<TRIPOS>BOND
     1     1     7    1
     2     2     3   ar
     3     2     6   ar
     4     2     8    1
     5     3     4   ar
     6     3    15    1
     7     4     5   ar
     8     4    16    1
     9     5     7   ar
    10     5    17    1
    11     6     7   ar
    12     6     9    1
    13     9    10    1
    14     9    18    1
    15    10    11   ar
    16    10    14   ar
    17    11    12   ar
    18    12    13   ar
    19    12    19    1
    20    13    14   ar
    21    13    20    1
    22    14    21    1

