DMS_1_A_403
  -ISIS-            3D

 10  9  0  0  0  0  0  0  0  0  1 V2000
    6.6400  -22.2800   -0.9770 S   0  0  0  0  0
    7.7670  -21.7510   -1.8130 O   0  0  0  0  0
    5.4490  -20.9540   -0.6190 C   0  0  0  0  0
    5.5630  -23.3460   -1.9650 C   0  0  0  0  0
    4.5917  -21.3675   -0.0495 H   0  0  0  0  0
    5.0868  -20.5065   -1.5672 H   0  0  0  0  0
    5.9470  -20.1713   -0.0110 H   0  0  0  0  0
    4.7025  -23.6797   -1.3498 H   0  0  0  0  0
    6.1366  -24.2341   -2.3004 H   0  0  0  0  0
    5.1944  -22.7920   -2.8526 H   0  0  0  0  0
  1  2  2  0  0  0
  1  3  1  0  0  0
  1  4  1  0  0  0
  3  5  1  0  0  0
  3  6  1  0  0  0
  3  7  1  0  0  0
  4  8  1  0  0  0
  4  9  1  0  0  0
  4 10  1  0  0  0
M  END
$$$$
