@<TRIPOS>MOLECULE
DMS_1_A_407
 10 9 0 0 0
SMALL
NO_CHARGES

@<TRIPOS>ATOM
      1 S           5.9200    0.3770   18.4940 S.o    407  DMS407      0.0000
      2 O           7.0060    0.6520   17.5010 O.2    407  DMS407      0.0000
      3 C1          6.6160    0.0970   20.1480 C.3    407  DMS407      0.0000
      4 C2          5.0240    1.9170   18.8430 C.3    407  DMS407      0.0000
      5 H           5.7936   -0.0307   20.8812 H      407  DMS407      0.0000
      6 H           7.2490    0.9591   20.4422 H      407  DMS407      0.0000
      7 H           7.2351   -0.8231   20.1310 H      407  DMS407      0.0000
      8 H           4.2568    1.7329   19.6226 H      407  DMS407      0.0000
      9 H           4.5245    2.2657   17.9160 H      407  DMS407      0.0000
     10 H           5.7326    2.6956   19.1925 H      407  DMS407      0.0000
@<TRIPOS>BOND
     1     1     2    2
     2     1     3    1
     3     1     4    1
     4     3     5    1
     5     3     6    1
     6     3     7    1
     7     4     8    1
     8     4     9    1
     9     4    10    1

