@<TRIPOS>MOLECULE
DMS_2_A_403
 10 9 0 0 0
SMALL
NO_CHARGES

@<TRIPOS>ATOM
      1 S          -2.3000  -18.9160   -8.0510 S.o    403  DMS403      0.0000
      2 O          -3.6320  -18.7120   -8.7460 O.2    403  DMS403      0.0000
      3 C1         -1.0550  -18.2860   -9.1480 C.3    403  DMS403      0.0000
      4 C2         -1.9140  -20.6470   -8.2700 C.3    403  DMS403      0.0000
      5 H          -0.0475  -18.5511   -8.7674 H      403  DMS403      0.0000
      6 H          -1.1381  -17.1811   -9.1989 H      403  DMS403      0.0000
      7 H          -1.1879  -18.7041  -10.1669 H      403  DMS403      0.0000
      8 H          -0.8820  -20.8500   -7.9179 H      403  DMS403      0.0000
      9 H          -2.0043  -20.9317   -9.3383 H      403  DMS403      0.0000
     10 H          -2.6222  -21.2571   -7.6728 H      403  DMS403      0.0000
@<TRIPOS>BOND
     1     1     2    2
     2     1     3    1
     3     1     4    1
     4     3     5    1
     5     3     6    1
     6     3     7    1
     7     4     8    1
     8     4     9    1
     9     4    10    1

