@<TRIPOS>MOLECULE
DMS_2_A_402
 10 9 0 0 0
SMALL
NO_CHARGES

@<TRIPOS>ATOM
      1 S          -6.1780   -1.0550    6.3460 S.o    402  DMS402      0.0000
      2 O          -7.1380   -0.8240    7.4600 O.2    402  DMS402      0.0000
      3 C1         -7.1160   -0.8870    4.8480 C.3    402  DMS402      0.0000
      4 C2         -5.9120   -2.8000    6.2610 C.3    402  DMS402      0.0000
      5 H          -6.4935   -1.1821    3.9786 H      402  DMS402      0.0000
      6 H          -7.4227    0.1717    4.7248 H      402  DMS402      0.0000
      7 H          -8.0240   -1.5234    4.8858 H      402  DMS402      0.0000
      8 H          -5.3169   -3.0475    5.3582 H      402  DMS402      0.0000
      9 H          -6.8809   -3.3391    6.2240 H      402  DMS402      0.0000
     10 H          -5.3510   -3.1296    7.1593 H      402  DMS402      0.0000
@<TRIPOS>BOND
     1     1     2    2
     2     1     3    1
     3     1     4    1
     4     3     5    1
     5     3     6    1
     6     3     7    1
     7     4     8    1
     8     4     9    1
     9     4    10    1

