@<TRIPOS>MOLECULE
DMS_1_A_401
 10 9 0 0 0
SMALL
NO_CHARGES

@<TRIPOS>ATOM
      1 S           7.1020  -28.1560   21.6310 S.o    401  DMS401      0.0000
      2 O           7.8250  -27.0110   22.2280 O.2    401  DMS401      0.0000
      3 C1          5.7280  -28.5170   22.7070 C.3    401  DMS401      0.0000
      4 C2          6.1480  -27.4900   20.2920 C.3    401  DMS401      0.0000
      5 H           5.0666  -29.2712   22.2335 H      401  DMS401      0.0000
      6 H           5.1481  -27.5949   22.9177 H      401  DMS401      0.0000
      7 H           6.1114  -28.9279   23.6632 H      401  DMS401      0.0000
      8 H           5.4719  -28.2699   19.8858 H      401  DMS401      0.0000
      9 H           6.8324  -27.1565   19.4854 H      401  DMS401      0.0000
     10 H           5.5479  -26.6226   20.6362 H      401  DMS401      0.0000
@<TRIPOS>BOND
     1     1     2    2
     2     1     3    1
     3     1     4    1
     4     3     5    1
     5     3     6    1
     6     3     7    1
     7     4     8    1
     8     4     9    1
     9     4    10    1

