@<TRIPOS>MOLECULE
DMS_2_A_401
 10 9 0 0 0
SMALL
NO_CHARGES

@<TRIPOS>ATOM
      1 S          -7.4330  -28.1170  -21.2500 S.o    401  DMS401      0.0000
      2 O          -8.0460  -27.0360  -22.0630 O.2    401  DMS401      0.0000
      3 C1         -6.2890  -28.9610  -22.3200 C.3    401  DMS401      0.0000
      4 C2         -6.2390  -27.3500  -20.1960 C.3    401  DMS401      0.0000
      5 H          -5.6985  -29.6958  -21.7353 H      401  DMS401      0.0000
      6 H          -5.6032  -28.2351  -22.8030 H      401  DMS401      0.0000
      7 H          -6.8543  -29.5015  -23.1066 H      401  DMS401      0.0000
      8 H          -5.6510  -28.1259  -19.6643 H      401  DMS401      0.0000
      9 H          -6.7617  -26.7222  -19.4456 H      401  DMS401      0.0000
     10 H          -5.5543  -26.7084  -20.7876 H      401  DMS401      0.0000
@<TRIPOS>BOND
     1     1     2    2
     2     1     3    1
     3     1     4    1
     4     3     5    1
     5     3     6    1
     6     3     7    1
     7     4     8    1
     8     4     9    1
     9     4    10    1

