@<TRIPOS>MOLECULE
DMS_2_A_405
 10 9 0 0 0
SMALL
NO_CHARGES

@<TRIPOS>ATOM
      1 S         -13.4180    4.5500  -23.4440 S.o    405  DMS405      0.0000
      2 O         -14.2360    4.8370  -22.1930 O.2    405  DMS405      0.0000
      3 C1        -12.2100    5.8310  -23.5320 C.3    405  DMS405      0.0000
      4 C2        -12.3110    3.2350  -23.0160 C.3    405  DMS405      0.0000
      5 H         -11.4794    5.6076  -24.3361 H      405  DMS405      0.0000
      6 H         -11.6755    5.9292  -22.5648 H      405  DMS405      0.0000
      7 H         -12.7113    6.7929  -23.7640 H      405  DMS405      0.0000
      8 H         -11.5794    3.0756  -23.8343 H      405  DMS405      0.0000
      9 H         -12.8911    2.3010  -22.8695 H      405  DMS405      0.0000
     10 H         -11.7698    3.4730  -22.0772 H      405  DMS405      0.0000
@<TRIPOS>BOND
     1     1     2    2
     2     1     3    1
     3     1     4    1
     4     3     5    1
     5     3     6    1
     6     3     7    1
     7     4     8    1
     8     4     9    1
     9     4    10    1

