@<TRIPOS>MOLECULE
DMS_2_A_402
 10 9 0 0 0
SMALL
NO_CHARGES

@<TRIPOS>ATOM
      1 S          -6.0810   -0.8780    6.3060 S.o    402  DMS402      0.0000
      2 O          -7.2150   -0.7080    7.2770 O.2    402  DMS402      0.0000
      3 C1         -6.8910   -0.8020    4.7210 C.3    402  DMS402      0.0000
      4 C2         -5.6820   -2.6040    6.2320 C.3    402  DMS402      0.0000
      5 H          -6.1710   -1.0579    3.9170 H      402  DMS402      0.0000
      6 H          -7.2633    0.2287    4.5501 H      402  DMS402      0.0000
      7 H          -7.7490   -1.5050    4.6873 H      402  DMS402      0.0000
      8 H          -4.9809   -2.7944    5.3937 H      402  DMS402      0.0000
      9 H          -6.6004   -3.2104    6.0926 H      402  DMS402      0.0000
     10 H          -5.1934   -2.9061    7.1808 H      402  DMS402      0.0000
@<TRIPOS>BOND
     1     1     2    2
     2     1     3    1
     3     1     4    1
     4     3     5    1
     5     3     6    1
     6     3     7    1
     7     4     8    1
     8     4     9    1
     9     4    10    1

