@<TRIPOS>MOLECULE
DMS_1_A_403
 10 9 0 0 0
SMALL
NO_CHARGES

@<TRIPOS>ATOM
      1 S           2.3760  -18.9230    8.0900 S.o    403  DMS403      0.0000
      2 O           3.6360  -18.5740    8.8530 O.2    403  DMS403      0.0000
      3 C1          1.0590  -17.9830    8.8200 C.3    403  DMS403      0.0000
      4 C2          1.8870  -20.5250    8.6860 C.3    403  DMS403      0.0000
      5 H           0.0855  -18.3098    8.4003 H      403  DMS403      0.0000
      6 H           1.2052  -16.9078    8.5895 H      403  DMS403      0.0000
      7 H           1.0515  -18.1181    9.9207 H      403  DMS403      0.0000
      8 H           0.8920  -20.7920    8.2744 H      403  DMS403      0.0000
      9 H           1.8419  -20.5282    9.7941 H      403  DMS403      0.0000
     10 H           2.6267  -21.2812    8.3526 H      403  DMS403      0.0000
@<TRIPOS>BOND
     1     1     2    2
     2     1     3    1
     3     1     4    1
     4     3     5    1
     5     3     6    1
     6     3     7    1
     7     4     8    1
     8     4     9    1
     9     4    10    1

