G81_1_A_307
  -ISIS-            3D

 71 72  0  0  0  0  0  0  0  0  1 V2000
   15.9920    1.9740   22.3410 O   0  0  0  0  0
   17.2040    1.9480   22.5580 C   0  0  0  0  0
   17.9240    3.1520   23.0460 O   0  0  0  0  0
   17.5740    4.0070   24.1610 C   0  0  0  0  0
   16.9620    5.2990   23.6040 C   0  0  0  0  0
   18.8720    4.3500   24.9040 C   0  0  0  0  0
   16.5770    3.3650   25.1340 C   0  0  0  0  0
   17.8990    0.8220   22.3270 N   0  0  0  0  0
   17.2030   -0.3840   21.8720 C   0  0  0  0  0
   18.2760   -1.3110   21.3080 C   0  0  0  0  0
   18.8140   -0.5990   20.0870 C   0  0  0  0  0
   19.9530    0.2110   20.1900 C   0  0  0  0  0
   20.4450    0.8800   19.0710 C   0  0  0  0  0
   19.7790    0.7470   17.8520 C   0  0  0  0  0
   18.6360   -0.0550   17.7370 C   0  0  0  0  0
   18.1510   -0.7280   18.8610 C   0  0  0  0  0
   16.4980   -0.9500   23.0680 C   0  0  0  0  0
   17.0470   -0.8680   24.1640 O   0  0  0  0  0
   15.2780   -1.4750   22.8910 N   0  0  0  0  0
   14.5790   -2.0170   24.0690 C   0  0  0  0  0
   13.2560   -1.2560   24.2830 C   0  0  0  0  0
   13.4860    0.2240   24.5600 C   0  0  0  0  0
   14.0830    0.4950   25.9590 C   0  0  0  0  0
   13.3370    1.6870   26.5790 C   0  0  0  0  0
   12.1870    1.7170   25.6990 N   0  0  0  0  0
   12.2240    1.0210   24.5710 C   0  0  0  0  0
   11.4170    1.0820   23.6410 O   0  0  0  0  0
   14.4370   -3.5270   23.8630 C   0  0  0  0  0
   15.7100   -4.2230   24.3960 C   0  0  0  0  0
   16.2200   -3.7370   25.7740 C   0  0  0  0  0
   15.4500   -3.4280   26.6700 O   0  0  0  0  0
   17.6600   -3.6380   26.0860 O   0  0  0  0  0
   18.1570   -3.2170   27.3750 C   0  0  0  0  0
   19.2020   -4.1840   27.8980 C   0  0  0  0  0
   16.7111    6.0226   24.4096 H   0  0  0  0  0
   16.0250    5.0987   23.0403 H   0  0  0  0  0
   17.6555    5.8147   22.9048 H   0  0  0  0  0
   18.6947    5.0410   25.7564 H   0  0  0  0  0
   19.6134    4.8385   24.2349 H   0  0  0  0  0
   19.3583    3.4392   25.3163 H   0  0  0  0  0
   16.3711    4.0194   26.0085 H   0  0  0  0  0
   16.9604    2.4006   25.5317 H   0  0  0  0  0
   15.5992    3.1572   24.6501 H   0  0  0  0  0
   18.9089    0.8288   22.5107 H   0  0  0  0  0
   16.4609   -0.1420   21.0749 H   0  0  0  0  0
   17.8324   -2.2918   21.0232 H   0  0  0  0  0
   19.0771   -1.5194   22.0520 H   0  0  0  0  0
   20.4872    0.3194   21.1487 H   0  0  0  0  0
   21.3474    1.5099   19.1475 H   0  0  0  0  0
   20.1596    1.2799   16.9637 H   0  0  0  0  0
   18.1217   -0.1519   16.7658 H   0  0  0  0  0
   17.2486   -1.3564   18.7715 H   0  0  0  0  0
   14.8319   -1.4916   21.9637 H   0  0  0  0  0
   15.1657   -1.8308   24.9922 H   0  0  0  0  0
   12.6831   -1.7138   25.1219 H   0  0  0  0  0
   12.6250   -1.3740   23.3718 H   0  0  0  0  0
   14.1483    0.6670   23.7806 H   0  0  0  0  0
   15.1783    0.6843   25.9076 H   0  0  0  0  0
   13.9406   -0.3956   26.6138 H   0  0  0  0  0
   13.9333    2.6239   26.5136 H   0  0  0  0  0
   13.0662    1.5004   27.6420 H   0  0  0  0  0
   11.3621    2.2946   25.9096 H   0  0  0  0  0
   14.2440   -3.7864   22.7978 H   0  0  0  0  0
   13.5645   -3.8989   24.4484 H   0  0  0  0  0
   16.5313   -4.0871   23.6571 H   0  0  0  0  0
   15.5281   -5.3194   24.4537 H   0  0  0  0  0
   17.3395   -3.1326   28.1204 H   0  0  0  0  0
   18.6041   -2.2048   27.2815 H   0  0  0  0  0
   19.5994   -3.8620   28.8853 H   0  0  0  0  0
   20.0670   -4.2650   27.2043 H   0  0  0  0  0
   18.7835   -5.2059   28.0274 H   0  0  0  0  0
  1  2  2  0  0  0
  2  3  1  0  0  0
  2  8  1  0  0  0
  3  4  1  0  0  0
  4  5  1  0  0  0
  4  6  1  0  0  0
  4  7  1  0  0  0
  5 35  1  0  0  0
  5 36  1  0  0  0
  5 37  1  0  0  0
  6 38  1  0  0  0
  6 39  1  0  0  0
  6 40  1  0  0  0
  7 41  1  0  0  0
  7 42  1  0  0  0
  7 43  1  0  0  0
  8  9  1  0  0  0
  8 44  1  0  0  0
  9 10  1  0  0  0
  9 17  1  0  0  0
  9 45  1  0  0  0
 10 11  1  0  0  0
 10 46  1  0  0  0
 10 47  1  0  0  0
 11 12  2  0  0  0
 11 16  1  0  0  0
 12 13  1  0  0  0
 12 48  1  0  0  0
 13 14  2  0  0  0
 13 49  1  0  0  0
 14 15  1  0  0  0
 14 50  1  0  0  0
 15 16  2  0  0  0
 15 51  1  0  0  0
 16 52  1  0  0  0
 17 18  2  0  0  0
 17 19  1  0  0  0
 19 20  1  0  0  0
 19 53  1  0  0  0
 20 21  1  0  0  0
 20 28  1  0  0  0
 20 54  1  0  0  0
 21 22  1  0  0  0
 21 55  1  0  0  0
 21 56  1  0  0  0
 22 23  1  0  0  0
 22 26  1  0  0  0
 22 57  1  0  0  0
 23 24  1  0  0  0
 23 58  1  0  0  0
 23 59  1  0  0  0
 24 25  1  0  0  0
 24 60  1  0  0  0
 24 61  1  0  0  0
 25 26  1  0  0  0
 25 62  1  0  0  0
 26 27  2  0  0  0
 28 29  1  0  0  0
 28 63  1  0  0  0
 28 64  1  0  0  0
 29 30  1  0  0  0
 29 65  1  0  0  0
 29 66  1  0  0  0
 30 31  2  0  0  0
 30 32  1  0  0  0
 32 33  1  0  0  0
 33 34  1  0  0  0
 33 67  1  0  0  0
 33 68  1  0  0  0
 34 69  1  0  0  0
 34 70  1  0  0  0
 34 71  1  0  0  0
M  END
$$$$
