@<TRIPOS>MOLECULE
IPA_1_A_602
 12 11 0 0 0
SMALL
NO_CHARGES

@<TRIPOS>ATOM
      1 C1         -2.9480  -13.5650  -44.0280 C.3    602  IPA602      0.0000
      2 C2         -3.1710  -12.6850  -45.2530 C.3    602  IPA602      0.0000
      3 C3         -3.5580  -11.2820  -44.7840 C.3    602  IPA602      0.0000
      4 O2         -4.1710  -13.2650  -46.0460 O.3    602  IPA602      0.0000
      5 H          -2.6461  -14.5959  -44.3164 H      602  IPA602      0.0000
      6 H          -3.8669  -13.6550  -43.4080 H      602  IPA602      0.0000
      7 H          -2.1440  -13.1648  -43.3722 H      602  IPA602      0.0000
      8 H          -2.2202  -12.6291  -45.8318 H      602  IPA602      0.0000
      9 H          -3.7138  -10.5928  -45.6428 H      602  IPA602      0.0000
     10 H          -2.7692  -10.8279  -44.1451 H      602  IPA602      0.0000
     11 H          -4.5007  -11.2878  -44.1942 H      602  IPA602      0.0000
     12 H          -4.2131  -12.7972  -46.8695 H      602  IPA602      0.0000
@<TRIPOS>BOND
     1     1     2    1
     2     1     5    1
     3     1     6    1
     4     1     7    1
     5     2     3    1
     6     2     4    1
     7     2     8    1
     8     3     9    1
     9     3    10    1
    10     3    11    1
    11     4    12    1

