CLW_1_A_201
  -ISIS-            3D

 14 15  0  0  0  0  0  0  0  0  1 V2000
  -48.6050  -29.1050    2.0070 C   0  0  0  0  0
  -49.4920  -28.8300    3.0210 C   0  0  0  0  0
  -49.0160  -28.8750    4.3090 C   0  0  0  0  0
  -47.6640  -29.2180    4.5350 C   0  0  0  0  0
  -46.7940  -29.5340    3.5240 C   0  0  0  0  0
  -47.3310  -29.4530    2.2810 C   0  0  0  0  0
  -46.3150  -29.7420    0.9500 Cl  0  0  0  0  0
  -49.6430  -28.6730    5.6020 O   0  0  0  0  0
  -48.6390  -28.9010    6.6230 C   0  0  0  0  0
  -47.4360  -29.2210    5.9360 N   0  0  0  0  0
  -48.7230  -28.8390    7.8330 O   0  0  0  0  0
  -48.9593  -29.0431    0.9636 H   0  0  0  0  0
  -50.5414  -28.5748    2.8151 H   0  0  0  0  0
  -45.7477  -29.8164    3.7191 H   0  0  0  0  0
  1  2  2  0  0  0
  1  6  1  0  0  0
  1 12  1  0  0  0
  2  3  1  0  0  0
  2 13  1  0  0  0
  3  4  2  0  0  0
  3  8  1  0  0  0
  4  5  1  0  0  0
  4 10  1  0  0  0
  5  6  2  0  0  0
  5 14  1  0  0  0
  6  7  1  0  0  0
  8  9  1  0  0  0
  9 10  1  0  0  0
  9 11  2  0  0  0
M  END
$$$$
