@<TRIPOS>MOLECULE
DMS_1_A_1002
 10 9 0 0 0
SMALL
NO_CHARGES

@<TRIPOS>ATOM
      1 S           6.9680  -28.0990   21.5180 S.o   1002  DMS1002      0.0000
      2 O           7.5740  -27.0480   22.3480 O.2   1002  DMS1002      0.0000
      3 C1          5.7570  -28.8670   22.5480 C.3   1002  DMS1002      0.0000
      4 C2          5.9190  -27.3220   20.3450 C.3   1002  DMS1002      0.0000
      5 H           5.1729  -29.6022   21.9576 H     1002  DMS1002      0.0000
      6 H           5.0695  -28.1048   22.9690 H     1002  DMS1002      0.0000
      7 H           6.2623  -29.3974   23.3810 H     1002  DMS1002      0.0000
      8 H           5.3409  -28.0889   19.7901 H     1002  DMS1002      0.0000
      9 H           6.5335  -26.7457   19.6234 H     1002  DMS1002      0.0000
     10 H           5.2170  -26.6298   20.8538 H     1002  DMS1002      0.0000
@<TRIPOS>BOND
     1     1     2    2
     2     1     3    1
     3     1     4    1
     4     3     5    1
     5     3     6    1
     6     3     7    1
     7     4     8    1
     8     4     9    1
     9     4    10    1

