DMS_2_A_1005
  -ISIS-            3D

 10  9  0  0  0  0  0  0  0  0  1 V2000
  -20.8830   14.5470   -7.6220 S   0  0  0  0  0
  -22.2350   15.1220   -7.6730 O   0  0  0  0  0
  -20.7820   13.5420   -9.0650 C   0  0  0  0  0
  -21.0000   13.2600   -6.4240 C   0  0  0  0  0
  -19.8603   12.9260   -9.0314 H   0  0  0  0  0
  -20.7435   14.1909   -9.9639 H   0  0  0  0  0
  -21.6663   12.8759   -9.1398 H   0  0  0  0  0
  -20.0744   12.6490   -6.4358 H   0  0  0  0  0
  -21.8729   12.6083   -6.6349 H   0  0  0  0  0
  -21.1193   13.7056   -5.4152 H   0  0  0  0  0
  1  2  2  0  0  0
  1  3  1  0  0  0
  1  4  1  0  0  0
  3  5  1  0  0  0
  3  6  1  0  0  0
  3  7  1  0  0  0
  4  8  1  0  0  0
  4  9  1  0  0  0
  4 10  1  0  0  0
M  END
$$$$
