@<TRIPOS>MOLECULE
DMS_1_A_1003
 10 9 0 0 0
SMALL
NO_CHARGES

@<TRIPOS>ATOM
      1 S           6.1630   -1.1630   -6.2190 S.o   1003  DMS1003      0.0000
      2 O           6.8810   -0.8770   -7.4570 O.2   1003  DMS1003      0.0000
      3 C1          7.3800   -1.0680   -4.9340 C.3   1003  DMS1003      0.0000
      4 C2          5.9060   -2.9070   -6.2450 C.3   1003  DMS1003      0.0000
      5 H           6.9459   -1.4284   -3.9790 H     1003  DMS1003      0.0000
      6 H           7.6996   -0.0134   -4.8069 H     1003  DMS1003      0.0000
      7 H           8.2647   -1.6857   -5.1925 H     1003  DMS1003      0.0000
      8 H           5.4983   -3.2411   -5.2691 H     1003  DMS1003      0.0000
      9 H           6.8600   -3.4371   -6.4450 H     1003  DMS1003      0.0000
     10 H           5.1776   -3.1610   -7.0421 H     1003  DMS1003      0.0000
@<TRIPOS>BOND
     1     1     2    2
     2     1     3    1
     3     1     4    1
     4     3     5    1
     5     3     6    1
     6     3     7    1
     7     4     8    1
     8     4     9    1
     9     4    10    1

