@<TRIPOS>MOLECULE
DMS_1_A_1004
 10 9 0 0 0
SMALL
NO_CHARGES

@<TRIPOS>ATOM
      1 S           2.2680  -19.1430    8.2790 S.o   1004  DMS1004      0.0000
      2 O           3.5720  -18.7710    8.8410 O.2   1004  DMS1004      0.0000
      3 C1          1.1140  -18.1010    9.1190 C.3   1004  DMS1004      0.0000
      4 C2          1.8710  -20.6780    9.0880 C.3   1004  DMS1004      0.0000
      5 H           0.0786  -18.4275    8.8919 H     1004  DMS1004      0.0000
      6 H           1.2425  -17.0550    8.7727 H     1004  DMS1004      0.0000
      7 H           1.2799  -18.1411   10.2153 H     1004  DMS1004      0.0000
      8 H           0.8224  -20.9602    8.8623 H     1004  DMS1004      0.0000
      9 H           1.9987  -20.5822   10.1860 H     1004  DMS1004      0.0000
     10 H           2.5449  -21.4756    8.7136 H     1004  DMS1004      0.0000
@<TRIPOS>BOND
     1     1     2    2
     2     1     3    1
     3     1     4    1
     4     3     5    1
     5     3     6    1
     6     3     7    1
     7     4     8    1
     8     4     9    1
     9     4    10    1

