@<TRIPOS>MOLECULE
DMS_1_A_1005
 10 9 0 0 0
SMALL
NO_CHARGES

@<TRIPOS>ATOM
      1 S          20.8830   14.5470    7.6220 S.o   1005  DMS1005      0.0000
      2 O          22.2350   15.1220    7.6730 O.2   1005  DMS1005      0.0000
      3 C1         20.7820   13.5420    9.0650 C.3   1005  DMS1005      0.0000
      4 C2         21.0000   13.2600    6.4240 C.3   1005  DMS1005      0.0000
      5 H          19.8603   12.9260    9.0314 H     1005  DMS1005      0.0000
      6 H          20.7435   14.1909    9.9639 H     1005  DMS1005      0.0000
      7 H          21.6663   12.8759    9.1398 H     1005  DMS1005      0.0000
      8 H          20.0744   12.6490    6.4358 H     1005  DMS1005      0.0000
      9 H          21.8729   12.6083    6.6349 H     1005  DMS1005      0.0000
     10 H          21.1193   13.7056    5.4152 H     1005  DMS1005      0.0000
@<TRIPOS>BOND
     1     1     2    2
     2     1     3    1
     3     1     4    1
     4     3     5    1
     5     3     6    1
     6     3     7    1
     7     4     8    1
     8     4     9    1
     9     4    10    1

