DMS_1_A_1003
  -ISIS-            3D

 10  9  0  0  0  0  0  0  0  0  1 V2000
    6.1630   -1.1630   -6.2190 S   0  0  0  0  0
    6.8810   -0.8770   -7.4570 O   0  0  0  0  0
    7.3800   -1.0680   -4.9340 C   0  0  0  0  0
    5.9060   -2.9070   -6.2450 C   0  0  0  0  0
    6.9459   -1.4284   -3.9790 H   0  0  0  0  0
    7.6996   -0.0134   -4.8069 H   0  0  0  0  0
    8.2647   -1.6857   -5.1925 H   0  0  0  0  0
    5.4983   -3.2411   -5.2691 H   0  0  0  0  0
    6.8600   -3.4371   -6.4450 H   0  0  0  0  0
    5.1776   -3.1610   -7.0421 H   0  0  0  0  0
  1  2  2  0  0  0
  1  3  1  0  0  0
  1  4  1  0  0  0
  3  5  1  0  0  0
  3  6  1  0  0  0
  3  7  1  0  0  0
  4  8  1  0  0  0
  4  9  1  0  0  0
  4 10  1  0  0  0
M  END
$$$$
