@<TRIPOS>MOLECULE
DMS_2_A_501
 10 9 0 0 0
SMALL
NO_CHARGES

@<TRIPOS>ATOM
      1 S          -8.1380   -4.5420  -25.8220 S.o    501  DMS501      0.0000
      2 O          -7.4420   -5.0950  -27.0560 O.2    501  DMS501      0.0000
      3 C1         -7.4470   -5.4310  -24.4510 C.3    501  DMS501      0.0000
      4 C2         -7.4410   -2.9480  -25.4690 C.3    501  DMS501      0.0000
      5 H          -7.8184   -5.0013  -23.4982 H      501  DMS501      0.0000
      6 H          -6.3392   -5.3765  -24.4740 H      501  DMS501      0.0000
      7 H          -7.7576   -6.4943  -24.5091 H      501  DMS501      0.0000
      8 H          -7.8226   -2.5775  -24.4956 H      501  DMS501      0.0000
      9 H          -7.7369   -2.2347  -26.2652 H      501  DMS501      0.0000
     10 H          -6.3340   -3.0105  -25.4333 H      501  DMS501      0.0000
@<TRIPOS>BOND
     1     1     2    2
     2     1     3    1
     3     1     4    1
     4     3     5    1
     5     3     6    1
     6     3     7    1
     7     4     8    1
     8     4     9    1
     9     4    10    1

