@<TRIPOS>MOLECULE
EDO_1_C_202
 10 9 0 0 0
SMALL
NO_CHARGES

@<TRIPOS>ATOM
      1 C1        -19.2300   15.3340  -24.5840 C.3    202  EDO202      0.0000
      2 O1        -17.8600   15.0700  -24.2560 O.3    202  EDO202      0.0000
      3 C2        -19.7390   14.2790  -25.5580 C.3    202  EDO202      0.0000
      4 O2        -20.3480   14.9230  -26.6840 O.3    202  EDO202      0.0000
      5 H         -19.3047   16.3488  -25.0289 H      202  EDO202      0.0000
      6 H         -19.8427   15.3361  -23.6580 H      202  EDO202      0.0000
      7 H         -17.5623   15.7465  -23.6624 H      202  EDO202      0.0000
      8 H         -20.4877   13.6231  -25.0675 H      202  EDO202      0.0000
      9 H         -18.9113   13.6222  -25.9007 H      202  EDO202      0.0000
     10 H         -19.8740   14.6717  -27.4655 H      202  EDO202      0.0000
@<TRIPOS>BOND
     1     1     2    1
     2     1     3    1
     3     1     5    1
     4     1     6    1
     5     2     7    1
     6     3     4    1
     7     3     8    1
     8     3     9    1
     9     4    10    1

