@<TRIPOS>MOLECULE
EDO_1_B_201
 10 9 0 0 0
SMALL
NO_CHARGES

@<TRIPOS>ATOM
      1 C1          8.3870   -6.1550  -29.7280 C.3    201  EDO201      0.0000
      2 O1          8.1020   -7.3820  -29.0400 O.3    201  EDO201      0.0000
      3 C2          7.1650   -5.2400  -29.6770 C.3    201  EDO201      0.0000
      4 O2          6.0930   -5.8340  -30.4260 O.3    201  EDO201      0.0000
      5 H           8.6704   -6.3696  -30.7800 H      201  EDO201      0.0000
      6 H           9.2533   -5.6561  -29.2441 H      201  EDO201      0.0000
      7 H           8.8763   -7.9276  -29.0755 H      201  EDO201      0.0000
      8 H           7.4035   -4.2508  -30.1194 H      201  EDO201      0.0000
      9 H           6.8408   -5.0648  -28.6299 H      201  EDO201      0.0000
     10 H           5.9894   -6.7160  -30.0884 H      201  EDO201      0.0000
@<TRIPOS>BOND
     1     1     2    1
     2     1     3    1
     3     1     5    1
     4     1     6    1
     5     2     7    1
     6     3     4    1
     7     3     8    1
     8     3     9    1
     9     4    10    1

