@<TRIPOS>MOLECULE
G83_1_A_501
 97 99 0 0 0
SMALL
NO_CHARGES

@<TRIPOS>ATOM
      1 O19       -19.8210    3.7860  -19.9810 O.2    501  G83501      0.0000
      2 C17       -18.6830    4.2090  -20.1070 C.2    501  G83501      0.0000
      3 O15       -18.2430    5.2290  -19.1830 O.3    501  G83501      0.0000
      4 C13       -19.1740    5.7160  -18.2120 C.3    501  G83501      0.0000
      5 C4        -20.0130    6.8430  -18.7950 C.ar   501  G83501      0.0000
      6 C6        -19.5200    8.1530  -18.8140 C.ar   501  G83501      0.0000
      7 C8        -20.3090    9.1840  -19.3360 C.ar   501  G83501      0.0000
      8 C10       -21.5910    8.9150  -19.8460 C.ar   501  G83501      0.0000
      9 C1        -22.1010    7.6100  -19.8200 C.ar   501  G83501      0.0000
     10 C2        -21.2970    6.5740  -19.2950 C.ar   501  G83501      0.0000
     11 N21       -17.8350    3.7990  -21.0370 N.am   501  G83501      0.0000
     12 C23       -18.1880    2.7820  -22.0070 C.3    501  G83501      0.0000
     13 C25       -17.7580    3.4030  -23.3420 C.3    501  G83501      0.0000
     14 C14       -18.6550    4.5580  -23.7570 C.2    501  G83501      0.0000
     15 O1        -18.1690    5.5710  -24.2460 O.2    501  G83501      0.0000
     16 O2        -20.0960    4.4470  -23.5780 O.3    501  G83501      0.0000
     17 C29       -21.0710    5.4810  -23.7650 C.3    501  G83501      0.0000
     18 C12       -20.5460    6.8420  -23.3060 C.3    501  G83501      0.0000
     19 C43       -21.4800    5.5350  -25.2320 C.3    501  G83501      0.0000
     20 C45       -22.2850    5.1160  -22.9100 C.3    501  G83501      0.0000
     21 C31       -17.3520    1.5510  -21.8220 C.2    501  G83501      0.0000
     22 O35       -16.1360    1.6730  -21.7440 O.2    501  G83501      0.0000
     23 N33       -18.0060    0.3850  -21.7970 N.am   501  G83501      0.0000
     24 C37       -17.2820   -0.8620  -21.6930 C.3    501  G83501      0.0000
     25 C41       -18.3190   -1.9930  -21.7630 C.3    501  G83501      0.0000
     26 C51       -19.2480   -2.1610  -20.5660 C.ar   501  G83501      0.0000
     27 C53       -20.4670   -2.8310  -20.7540 C.ar   501  G83501      0.0000
     28 C7        -21.3690   -3.0300  -19.6950 C.ar   501  G83501      0.0000
     29 C9        -21.0310   -2.5330  -18.4370 C.ar   501  G83501      0.0000
     30 C11       -19.8260   -1.8590  -18.2390 C.ar   501  G83501      0.0000
     31 C55       -18.9220   -1.6770  -19.2960 C.ar   501  G83501      0.0000
     32 C39       -16.4410   -1.0420  -22.9280 C.2    501  G83501      0.0000
     33 O47       -16.9130   -0.7400  -24.0320 O.2    501  G83501      0.0000
     34 N49       -15.2140   -1.5780  -22.7810 N.am   501  G83501      0.0000
     35 C57       -14.3780   -1.8400  -23.9490 C.3    501  G83501      0.0000
     36 C59       -13.0910   -0.9890  -23.9590 C.3    501  G83501      0.0000
     37 C61       -13.3610    0.4510  -24.3580 C.3    501  G83501      0.0000
     38 C73       -14.0610    0.6310  -25.7160 C.3    501  G83501      0.0000
     39 C71       -13.3800    1.8260  -26.4320 C.3    501  G83501      0.0000
     40 N69       -12.1060    1.8290  -25.7230 N.am   501  G83501      0.0000
     41 C65       -12.0840    1.2050  -24.5460 C.2    501  G83501      0.0000
     42 O66       -11.2150    1.2530  -23.6970 O.2    501  G83501      0.0000
     43 C63       -13.9900   -3.3000  -23.7910 C.3    501  G83501      0.0000
     44 C82       -15.1650   -4.2690  -23.8620 C.3    501  G83501      0.0000
     45 C84       -14.9880   -4.7550  -25.2700 C.2    501  G83501      0.0000
     46 O88       -14.2210   -5.7260  -25.5040 O.2    501  G83501      0.0000
     47 O86       -15.6800   -3.9560  -26.3010 O.3    501  G83501      0.0000
     48 C3        -17.0160   -3.4970  -26.0000 C.3    501  G83501      0.0000
     49 C5        -17.9810   -3.7200  -27.1420 C.3    501  G83501      0.0000
     50 H         -18.6134    6.1022  -17.3355 H      501  G83501      0.0000
     51 H         -19.8208    4.9084  -17.8134 H      501  G83501      0.0000
     52 H         -18.5140    8.3788  -18.4215 H      501  G83501      0.0000
     53 H         -19.9202   10.2167  -19.3518 H      501  G83501      0.0000
     54 H         -22.2003    9.7353  -20.2623 H      501  G83501      0.0000
     55 H         -23.1105    7.3931  -20.2079 H      501  G83501      0.0000
     56 H         -21.6941    5.5452  -19.2785 H      501  G83501      0.0000
     57 H         -16.8881    4.1999  -21.0415 H      501  G83501      0.0000
     58 H         -19.2751    2.5438  -22.0169 H      501  G83501      0.0000
     59 H         -17.8285    2.6273  -24.1384 H      501  G83501      0.0000
     60 H         -16.6942    3.7287  -23.3222 H      501  G83501      0.0000
     61 H         -21.3595    7.5982  -23.2600 H      501  G83501      0.0000
     62 H         -19.7784    7.2638  -23.9870 H      501  G83501      0.0000
     63 H         -20.0984    6.7914  -22.2894 H      501  G83501      0.0000
     64 H         -22.2661    6.2990  -25.4161 H      501  G83501      0.0000
     65 H         -21.8818    4.5601  -25.5838 H      501  G83501      0.0000
     66 H         -20.6212    5.7863  -25.8912 H      501  G83501      0.0000
     67 H         -23.1009    5.8658  -22.9970 H      501  G83501      0.0000
     68 H         -22.0208    5.0424  -21.8332 H      501  G83501      0.0000
     69 H         -22.7136    4.1329  -23.2028 H      501  G83501      0.0000
     70 H         -19.0341    0.3687  -21.8452 H      501  G83501      0.0000
     71 H         -16.6619   -0.9165  -20.7712 H      501  G83501      0.0000
     72 H         -17.7760   -2.9608  -21.8768 H      501  G83501      0.0000
     73 H         -18.9349   -1.8806  -22.6856 H      501  G83501      0.0000
     74 H         -20.7315   -3.2188  -21.7530 H      501  G83501      0.0000
     75 H         -22.3209   -3.5634  -19.8556 H      501  G83501      0.0000
     76 H         -21.7247   -2.6729  -17.5902 H      501  G83501      0.0000
     77 H         -19.5780   -1.4688  -17.2368 H      501  G83501      0.0000
     78 H         -17.9751   -1.1504  -19.0980 H      501  G83501      0.0000
     79 H         -14.8534   -1.7847  -21.8393 H      501  G83501      0.0000
     80 H         -14.9229   -1.7172  -24.9096 H      501  G83501      0.0000
     81 H         -12.3663   -1.4264  -24.6849 H      501  G83501      0.0000
     82 H         -12.6019   -1.0268  -22.9584 H      501  G83501      0.0000
     83 H         -13.9581    0.9612  -23.5651 H      501  G83501      0.0000
     84 H         -15.1558    0.7982  -25.6049 H      501  G83501      0.0000
     85 H         -13.9214   -0.2800  -26.3429 H      501  G83501      0.0000
     86 H         -13.9462    2.7705  -26.2683 H      501  G83501      0.0000
     87 H         -13.2716    1.6468  -27.5247 H      501  G83501      0.0000
     88 H         -11.2738    2.3238  -26.0696 H      501  G83501      0.0000
     89 H         -13.4904   -3.4322  -22.8017 H      501  G83501      0.0000
     90 H         -13.2008   -3.5593  -24.5338 H      501  G83501      0.0000
     91 H         -16.1316   -3.7918  -23.6203 H      501  G83501      0.0000
     92 H         -15.0186   -5.1095  -23.1479 H      501  G83501      0.0000
     93 H         -16.9910   -2.4138  -25.7696 H      501  G83501      0.0000
     94 H         -17.4396   -4.0134  -25.1147 H      501  G83501      0.0000
     95 H         -19.0013   -3.3530  -26.8956 H      501  G83501      0.0000
     96 H         -18.0699   -4.7987  -27.3964 H      501  G83501      0.0000
     97 H         -17.6528   -3.1893  -28.0621 H      501  G83501      0.0000
@<TRIPOS>BOND
     1     1     2    2
     2     2     3    1
     3     2    11    1
     4     3     4    1
     5     4     5    1
     6     4    50    1
     7     4    51    1
     8     5     6   ar
     9     5    10   ar
    10     6     7   ar
    11     6    52    1
    12     7     8   ar
    13     7    53    1
    14     8     9   ar
    15     8    54    1
    16     9    10   ar
    17     9    55    1
    18    10    56    1
    19    11    12    1
    20    11    57    1
    21    12    13    1
    22    12    21    1
    23    12    58    1
    24    13    14    1
    25    13    59    1
    26    13    60    1
    27    14    15    2
    28    14    16    1
    29    16    17    1
    30    17    18    1
    31    17    19    1
    32    17    20    1
    33    18    61    1
    34    18    62    1
    35    18    63    1
    36    19    64    1
    37    19    65    1
    38    19    66    1
    39    20    67    1
    40    20    68    1
    41    20    69    1
    42    21    22    2
    43    21    23    1
    44    23    24    1
    45    23    70    1
    46    24    25    1
    47    24    32    1
    48    24    71    1
    49    25    26    1
    50    25    72    1
    51    25    73    1
    52    26    27   ar
    53    26    31   ar
    54    27    28   ar
    55    27    74    1
    56    28    29   ar
    57    28    75    1
    58    29    30   ar
    59    29    76    1
    60    30    31   ar
    61    30    77    1
    62    31    78    1
    63    32    33    2
    64    32    34    1
    65    34    35    1
    66    34    79    1
    67    35    36    1
    68    35    43    1
    69    35    80    1
    70    36    37    1
    71    36    81    1
    72    36    82    1
    73    37    38    1
    74    37    41    1
    75    37    83    1
    76    38    39    1
    77    38    84    1
    78    38    85    1
    79    39    40    1
    80    39    86    1
    81    39    87    1
    82    40    41    1
    83    40    88    1
    84    41    42    2
    85    43    44    1
    86    43    89    1
    87    43    90    1
    88    44    45    1
    89    44    91    1
    90    44    92    1
    91    45    46    2
    92    45    47    1
    93    47    48    1
    94    48    49    1
    95    48    93    1
    96    48    94    1
    97    49    95    1
    98    49    96    1
    99    49    97    1

