@<TRIPOS>MOLECULE
G83_2_A_501
 97 99 0 0 0
SMALL
NO_CHARGES

@<TRIPOS>ATOM
      1 O19        33.3450    3.7860  -31.6060 O.2    501  G83501      0.0000
      2 C17        32.2070    4.2090  -31.4800 C.2    501  G83501      0.0000
      3 O15        31.7670    5.2290  -32.4040 O.3    501  G83501      0.0000
      4 C13        32.6980    5.7160  -33.3750 C.3    501  G83501      0.0000
      5 C4         33.5370    6.8430  -32.7920 C.ar   501  G83501      0.0000
      6 C6         33.0440    8.1530  -32.7730 C.ar   501  G83501      0.0000
      7 C8         33.8330    9.1840  -32.2510 C.ar   501  G83501      0.0000
      8 C10        35.1150    8.9150  -31.7410 C.ar   501  G83501      0.0000
      9 C1         35.6250    7.6100  -31.7670 C.ar   501  G83501      0.0000
     10 C2         34.8210    6.5740  -32.2920 C.ar   501  G83501      0.0000
     11 N21        31.3590    3.7990  -30.5500 N.am   501  G83501      0.0000
     12 C23        31.7120    2.7820  -29.5800 C.3    501  G83501      0.0000
     13 C25        31.2820    3.4030  -28.2450 C.3    501  G83501      0.0000
     14 C14        32.1790    4.5580  -27.8300 C.2    501  G83501      0.0000
     15 O1         31.6930    5.5710  -27.3410 O.2    501  G83501      0.0000
     16 O2         33.6200    4.4470  -28.0090 O.3    501  G83501      0.0000
     17 C29        34.5950    5.4810  -27.8220 C.3    501  G83501      0.0000
     18 C12        34.0700    6.8420  -28.2810 C.3    501  G83501      0.0000
     19 C43        35.0040    5.5350  -26.3550 C.3    501  G83501      0.0000
     20 C45        35.8090    5.1160  -28.6770 C.3    501  G83501      0.0000
     21 C31        30.8760    1.5510  -29.7650 C.2    501  G83501      0.0000
     22 O35        29.6600    1.6730  -29.8430 O.2    501  G83501      0.0000
     23 N33        31.5300    0.3850  -29.7900 N.am   501  G83501      0.0000
     24 C37        30.8060   -0.8620  -29.8940 C.3    501  G83501      0.0000
     25 C41        31.8430   -1.9930  -29.8240 C.3    501  G83501      0.0000
     26 C51        32.7720   -2.1610  -31.0210 C.ar   501  G83501      0.0000
     27 C53        33.9910   -2.8310  -30.8330 C.ar   501  G83501      0.0000
     28 C7         34.8930   -3.0300  -31.8920 C.ar   501  G83501      0.0000
     29 C9         34.5550   -2.5330  -33.1500 C.ar   501  G83501      0.0000
     30 C11        33.3500   -1.8590  -33.3480 C.ar   501  G83501      0.0000
     31 C55        32.4460   -1.6770  -32.2910 C.ar   501  G83501      0.0000
     32 C39        29.9650   -1.0420  -28.6590 C.2    501  G83501      0.0000
     33 O47        30.4370   -0.7400  -27.5550 O.2    501  G83501      0.0000
     34 N49        28.7380   -1.5780  -28.8060 N.am   501  G83501      0.0000
     35 C57        27.9020   -1.8400  -27.6380 C.3    501  G83501      0.0000
     36 C59        26.6150   -0.9890  -27.6280 C.3    501  G83501      0.0000
     37 C61        26.8850    0.4510  -27.2290 C.3    501  G83501      0.0000
     38 C73        27.5850    0.6310  -25.8710 C.3    501  G83501      0.0000
     39 C71        26.9040    1.8260  -25.1550 C.3    501  G83501      0.0000
     40 N69        25.6300    1.8290  -25.8640 N.am   501  G83501      0.0000
     41 C65        25.6080    1.2050  -27.0410 C.2    501  G83501      0.0000
     42 O66        24.7390    1.2530  -27.8900 O.2    501  G83501      0.0000
     43 C63        27.5140   -3.3000  -27.7960 C.3    501  G83501      0.0000
     44 C82        28.6890   -4.2690  -27.7250 C.3    501  G83501      0.0000
     45 C84        28.5120   -4.7550  -26.3170 C.2    501  G83501      0.0000
     46 O88        27.7450   -5.7260  -26.0830 O.2    501  G83501      0.0000
     47 O86        29.2040   -3.9560  -25.2860 O.3    501  G83501      0.0000
     48 C3         30.5400   -3.4970  -25.5870 C.3    501  G83501      0.0000
     49 C5         31.5050   -3.7200  -24.4450 C.3    501  G83501      0.0000
     50 H          32.1374    6.1022  -34.2515 H      501  G83501      0.0000
     51 H          33.3448    4.9084  -33.7736 H      501  G83501      0.0000
     52 H          32.0380    8.3788  -33.1655 H      501  G83501      0.0000
     53 H          33.4442   10.2167  -32.2352 H      501  G83501      0.0000
     54 H          35.7243    9.7353  -31.3247 H      501  G83501      0.0000
     55 H          36.6345    7.3931  -31.3791 H      501  G83501      0.0000
     56 H          35.2181    5.5452  -32.3085 H      501  G83501      0.0000
     57 H          30.4121    4.1999  -30.5455 H      501  G83501      0.0000
     58 H          32.7991    2.5438  -29.5701 H      501  G83501      0.0000
     59 H          31.3525    2.6273  -27.4486 H      501  G83501      0.0000
     60 H          30.2182    3.7287  -28.2648 H      501  G83501      0.0000
     61 H          34.8835    7.5982  -28.3270 H      501  G83501      0.0000
     62 H          33.3024    7.2638  -27.6000 H      501  G83501      0.0000
     63 H          33.6224    6.7914  -29.2976 H      501  G83501      0.0000
     64 H          35.7901    6.2990  -26.1709 H      501  G83501      0.0000
     65 H          35.4058    4.5601  -26.0032 H      501  G83501      0.0000
     66 H          34.1452    5.7863  -25.6958 H      501  G83501      0.0000
     67 H          36.6249    5.8658  -28.5900 H      501  G83501      0.0000
     68 H          35.5448    5.0424  -29.7538 H      501  G83501      0.0000
     69 H          36.2376    4.1329  -28.3842 H      501  G83501      0.0000
     70 H          32.5581    0.3687  -29.7418 H      501  G83501      0.0000
     71 H          30.1859   -0.9165  -30.8158 H      501  G83501      0.0000
     72 H          31.3000   -2.9608  -29.7102 H      501  G83501      0.0000
     73 H          32.4589   -1.8806  -28.9014 H      501  G83501      0.0000
     74 H          34.2555   -3.2188  -29.8340 H      501  G83501      0.0000
     75 H          35.8449   -3.5634  -31.7313 H      501  G83501      0.0000
     76 H          35.2487   -2.6729  -33.9968 H      501  G83501      0.0000
     77 H          33.1020   -1.4688  -34.3502 H      501  G83501      0.0000
     78 H          31.4991   -1.1504  -32.4890 H      501  G83501      0.0000
     79 H          28.3774   -1.7847  -29.7477 H      501  G83501      0.0000
     80 H          28.4469   -1.7172  -26.6774 H      501  G83501      0.0000
     81 H          25.8903   -1.4264  -26.9021 H      501  G83501      0.0000
     82 H          26.1259   -1.0268  -28.6286 H      501  G83501      0.0000
     83 H          27.4821    0.9612  -28.0219 H      501  G83501      0.0000
     84 H          28.6798    0.7982  -25.9821 H      501  G83501      0.0000
     85 H          27.4454   -0.2800  -25.2441 H      501  G83501      0.0000
     86 H          27.4702    2.7705  -25.3187 H      501  G83501      0.0000
     87 H          26.7956    1.6468  -24.0623 H      501  G83501      0.0000
     88 H          24.7978    2.3238  -25.5174 H      501  G83501      0.0000
     89 H          27.0144   -3.4322  -28.7853 H      501  G83501      0.0000
     90 H          26.7248   -3.5593  -27.0532 H      501  G83501      0.0000
     91 H          29.6556   -3.7918  -27.9667 H      501  G83501      0.0000
     92 H          28.5426   -5.1095  -28.4391 H      501  G83501      0.0000
     93 H          30.5150   -2.4138  -25.8174 H      501  G83501      0.0000
     94 H          30.9636   -4.0134  -26.4723 H      501  G83501      0.0000
     95 H          32.5253   -3.3530  -24.6914 H      501  G83501      0.0000
     96 H          31.5939   -4.7987  -24.1906 H      501  G83501      0.0000
     97 H          31.1768   -3.1893  -23.5249 H      501  G83501      0.0000
@<TRIPOS>BOND
     1     1     2    2
     2     2     3    1
     3     2    11    1
     4     3     4    1
     5     4     5    1
     6     4    50    1
     7     4    51    1
     8     5     6   ar
     9     5    10   ar
    10     6     7   ar
    11     6    52    1
    12     7     8   ar
    13     7    53    1
    14     8     9   ar
    15     8    54    1
    16     9    10   ar
    17     9    55    1
    18    10    56    1
    19    11    12    1
    20    11    57    1
    21    12    13    1
    22    12    21    1
    23    12    58    1
    24    13    14    1
    25    13    59    1
    26    13    60    1
    27    14    15    2
    28    14    16    1
    29    16    17    1
    30    17    18    1
    31    17    19    1
    32    17    20    1
    33    18    61    1
    34    18    62    1
    35    18    63    1
    36    19    64    1
    37    19    65    1
    38    19    66    1
    39    20    67    1
    40    20    68    1
    41    20    69    1
    42    21    22    2
    43    21    23    1
    44    23    24    1
    45    23    70    1
    46    24    25    1
    47    24    32    1
    48    24    71    1
    49    25    26    1
    50    25    72    1
    51    25    73    1
    52    26    27   ar
    53    26    31   ar
    54    27    28   ar
    55    27    74    1
    56    28    29   ar
    57    28    75    1
    58    29    30   ar
    59    29    76    1
    60    30    31   ar
    61    30    77    1
    62    31    78    1
    63    32    33    2
    64    32    34    1
    65    34    35    1
    66    34    79    1
    67    35    36    1
    68    35    43    1
    69    35    80    1
    70    36    37    1
    71    36    81    1
    72    36    82    1
    73    37    38    1
    74    37    41    1
    75    37    83    1
    76    38    39    1
    77    38    84    1
    78    38    85    1
    79    39    40    1
    80    39    86    1
    81    39    87    1
    82    40    41    1
    83    40    88    1
    84    41    42    2
    85    43    44    1
    86    43    89    1
    87    43    90    1
    88    44    45    1
    89    44    91    1
    90    44    92    1
    91    45    46    2
    92    45    47    1
    93    47    48    1
    94    48    49    1
    95    48    93    1
    96    48    94    1
    97    49    95    1
    98    49    96    1
    99    49    97    1

