G83_2_A_501
  -ISIS-            3D

 97 99  0  0  0  0  0  0  0  0  1 V2000
   33.3450    3.7860  -31.6060 O   0  0  0  0  0
   32.2070    4.2090  -31.4800 C   0  0  0  0  0
   31.7670    5.2290  -32.4040 O   0  0  0  0  0
   32.6980    5.7160  -33.3750 C   0  0  0  0  0
   33.5370    6.8430  -32.7920 C   0  0  0  0  0
   33.0440    8.1530  -32.7730 C   0  0  0  0  0
   33.8330    9.1840  -32.2510 C   0  0  0  0  0
   35.1150    8.9150  -31.7410 C   0  0  0  0  0
   35.6250    7.6100  -31.7670 C   0  0  0  0  0
   34.8210    6.5740  -32.2920 C   0  0  0  0  0
   31.3590    3.7990  -30.5500 N   0  0  0  0  0
   31.7120    2.7820  -29.5800 C   0  0  0  0  0
   31.2820    3.4030  -28.2450 C   0  0  0  0  0
   32.1790    4.5580  -27.8300 C   0  0  0  0  0
   31.6930    5.5710  -27.3410 O   0  0  0  0  0
   33.6200    4.4470  -28.0090 O   0  0  0  0  0
   34.5950    5.4810  -27.8220 C   0  0  0  0  0
   34.0700    6.8420  -28.2810 C   0  0  0  0  0
   35.0040    5.5350  -26.3550 C   0  0  0  0  0
   35.8090    5.1160  -28.6770 C   0  0  0  0  0
   30.8760    1.5510  -29.7650 C   0  0  0  0  0
   29.6600    1.6730  -29.8430 O   0  0  0  0  0
   31.5300    0.3850  -29.7900 N   0  0  0  0  0
   30.8060   -0.8620  -29.8940 C   0  0  0  0  0
   31.8430   -1.9930  -29.8240 C   0  0  0  0  0
   32.7720   -2.1610  -31.0210 C   0  0  0  0  0
   33.9910   -2.8310  -30.8330 C   0  0  0  0  0
   34.8930   -3.0300  -31.8920 C   0  0  0  0  0
   34.5550   -2.5330  -33.1500 C   0  0  0  0  0
   33.3500   -1.8590  -33.3480 C   0  0  0  0  0
   32.4460   -1.6770  -32.2910 C   0  0  0  0  0
   29.9650   -1.0420  -28.6590 C   0  0  0  0  0
   30.4370   -0.7400  -27.5550 O   0  0  0  0  0
   28.7380   -1.5780  -28.8060 N   0  0  0  0  0
   27.9020   -1.8400  -27.6380 C   0  0  0  0  0
   26.6150   -0.9890  -27.6280 C   0  0  0  0  0
   26.8850    0.4510  -27.2290 C   0  0  0  0  0
   27.5850    0.6310  -25.8710 C   0  0  0  0  0
   26.9040    1.8260  -25.1550 C   0  0  0  0  0
   25.6300    1.8290  -25.8640 N   0  0  0  0  0
   25.6080    1.2050  -27.0410 C   0  0  0  0  0
   24.7390    1.2530  -27.8900 O   0  0  0  0  0
   27.5140   -3.3000  -27.7960 C   0  0  0  0  0
   28.6890   -4.2690  -27.7250 C   0  0  0  0  0
   28.5120   -4.7550  -26.3170 C   0  0  0  0  0
   27.7450   -5.7260  -26.0830 O   0  0  0  0  0
   29.2040   -3.9560  -25.2860 O   0  0  0  0  0
   30.5400   -3.4970  -25.5870 C   0  0  0  0  0
   31.5050   -3.7200  -24.4450 C   0  0  0  0  0
   32.1374    6.1022  -34.2515 H   0  0  0  0  0
   33.3448    4.9084  -33.7736 H   0  0  0  0  0
   32.0380    8.3788  -33.1655 H   0  0  0  0  0
   33.4442   10.2167  -32.2352 H   0  0  0  0  0
   35.7243    9.7353  -31.3247 H   0  0  0  0  0
   36.6345    7.3931  -31.3791 H   0  0  0  0  0
   35.2181    5.5452  -32.3085 H   0  0  0  0  0
   30.4121    4.1999  -30.5455 H   0  0  0  0  0
   32.7991    2.5438  -29.5701 H   0  0  0  0  0
   31.3525    2.6273  -27.4486 H   0  0  0  0  0
   30.2182    3.7287  -28.2648 H   0  0  0  0  0
   34.8835    7.5982  -28.3270 H   0  0  0  0  0
   33.3024    7.2638  -27.6000 H   0  0  0  0  0
   33.6224    6.7914  -29.2976 H   0  0  0  0  0
   35.7901    6.2990  -26.1709 H   0  0  0  0  0
   35.4058    4.5601  -26.0032 H   0  0  0  0  0
   34.1452    5.7863  -25.6958 H   0  0  0  0  0
   36.6249    5.8658  -28.5900 H   0  0  0  0  0
   35.5448    5.0424  -29.7538 H   0  0  0  0  0
   36.2376    4.1329  -28.3842 H   0  0  0  0  0
   32.5581    0.3687  -29.7418 H   0  0  0  0  0
   30.1859   -0.9165  -30.8158 H   0  0  0  0  0
   31.3000   -2.9608  -29.7102 H   0  0  0  0  0
   32.4589   -1.8806  -28.9014 H   0  0  0  0  0
   34.2555   -3.2188  -29.8340 H   0  0  0  0  0
   35.8449   -3.5634  -31.7313 H   0  0  0  0  0
   35.2487   -2.6729  -33.9968 H   0  0  0  0  0
   33.1020   -1.4688  -34.3502 H   0  0  0  0  0
   31.4991   -1.1504  -32.4890 H   0  0  0  0  0
   28.3774   -1.7847  -29.7477 H   0  0  0  0  0
   28.4469   -1.7172  -26.6774 H   0  0  0  0  0
   25.8903   -1.4264  -26.9021 H   0  0  0  0  0
   26.1259   -1.0268  -28.6286 H   0  0  0  0  0
   27.4821    0.9612  -28.0219 H   0  0  0  0  0
   28.6798    0.7982  -25.9821 H   0  0  0  0  0
   27.4454   -0.2800  -25.2441 H   0  0  0  0  0
   27.4702    2.7705  -25.3187 H   0  0  0  0  0
   26.7956    1.6468  -24.0623 H   0  0  0  0  0
   24.7978    2.3238  -25.5174 H   0  0  0  0  0
   27.0144   -3.4322  -28.7853 H   0  0  0  0  0
   26.7248   -3.5593  -27.0532 H   0  0  0  0  0
   29.6556   -3.7918  -27.9667 H   0  0  0  0  0
   28.5426   -5.1095  -28.4391 H   0  0  0  0  0
   30.5150   -2.4138  -25.8174 H   0  0  0  0  0
   30.9636   -4.0134  -26.4723 H   0  0  0  0  0
   32.5253   -3.3530  -24.6914 H   0  0  0  0  0
   31.5939   -4.7987  -24.1906 H   0  0  0  0  0
   31.1768   -3.1893  -23.5249 H   0  0  0  0  0
  1  2  2  0  0  0
  2  3  1  0  0  0
  2 11  1  0  0  0
  3  4  1  0  0  0
  4  5  1  0  0  0
  4 50  1  0  0  0
  4 51  1  0  0  0
  5  6  2  0  0  0
  5 10  1  0  0  0
  6  7  1  0  0  0
  6 52  1  0  0  0
  7  8  2  0  0  0
  7 53  1  0  0  0
  8  9  1  0  0  0
  8 54  1  0  0  0
  9 10  2  0  0  0
  9 55  1  0  0  0
 10 56  1  0  0  0
 11 12  1  0  0  0
 11 57  1  0  0  0
 12 13  1  0  0  0
 12 21  1  0  0  0
 12 58  1  0  0  0
 13 14  1  0  0  0
 13 59  1  0  0  0
 13 60  1  0  0  0
 14 15  2  0  0  0
 14 16  1  0  0  0
 16 17  1  0  0  0
 17 18  1  0  0  0
 17 19  1  0  0  0
 17 20  1  0  0  0
 18 61  1  0  0  0
 18 62  1  0  0  0
 18 63  1  0  0  0
 19 64  1  0  0  0
 19 65  1  0  0  0
 19 66  1  0  0  0
 20 67  1  0  0  0
 20 68  1  0  0  0
 20 69  1  0  0  0
 21 22  2  0  0  0
 21 23  1  0  0  0
 23 24  1  0  0  0
 23 70  1  0  0  0
 24 25  1  0  0  0
 24 32  1  0  0  0
 24 71  1  0  0  0
 25 26  1  0  0  0
 25 72  1  0  0  0
 25 73  1  0  0  0
 26 27  2  0  0  0
 26 31  1  0  0  0
 27 28  1  0  0  0
 27 74  1  0  0  0
 28 29  2  0  0  0
 28 75  1  0  0  0
 29 30  1  0  0  0
 29 76  1  0  0  0
 30 31  2  0  0  0
 30 77  1  0  0  0
 31 78  1  0  0  0
 32 33  2  0  0  0
 32 34  1  0  0  0
 34 35  1  0  0  0
 34 79  1  0  0  0
 35 36  1  0  0  0
 35 43  1  0  0  0
 35 80  1  0  0  0
 36 37  1  0  0  0
 36 81  1  0  0  0
 36 82  1  0  0  0
 37 38  1  0  0  0
 37 41  1  0  0  0
 37 83  1  0  0  0
 38 39  1  0  0  0
 38 84  1  0  0  0
 38 85  1  0  0  0
 39 40  1  0  0  0
 39 86  1  0  0  0
 39 87  1  0  0  0
 40 41  1  0  0  0
 40 88  1  0  0  0
 41 42  2  0  0  0
 43 44  1  0  0  0
 43 89  1  0  0  0
 43 90  1  0  0  0
 44 45  1  0  0  0
 44 91  1  0  0  0
 44 92  1  0  0  0
 45 46  2  0  0  0
 45 47  1  0  0  0
 47 48  1  0  0  0
 48 49  1  0  0  0
 48 93  1  0  0  0
 48 94  1  0  0  0
 49 95  1  0  0  0
 49 96  1  0  0  0
 49 97  1  0  0  0
M  END
$$$$
