@<TRIPOS>MOLECULE
DMS_2_A_402
 10 9 0 0 0
SMALL
NO_CHARGES

@<TRIPOS>ATOM
      1 S          -6.3770    0.5540  -19.2410 S.o    402  DMS402      0.0000
      2 O          -6.5180    0.2910  -17.7790 O.2    402  DMS402      0.0000
      3 C1         -4.9100    1.5270  -19.4320 C.3    402  DMS402      0.0000
      4 C2         -5.7790   -0.9450  -19.9720 C.3    402  DMS402      0.0000
      5 H          -4.6742    1.6455  -20.5095 H      402  DMS402      0.0000
      6 H          -4.0546    1.0429  -18.9177 H      402  DMS402      0.0000
      7 H          -5.0754    2.5307  -18.9900 H      402  DMS402      0.0000
      8 H          -5.5248   -0.7692  -21.0373 H      402  DMS402      0.0000
      9 H          -6.5697   -1.7209  -19.9164 H      402  DMS402      0.0000
     10 H          -4.8799   -1.3069  -19.4323 H      402  DMS402      0.0000
@<TRIPOS>BOND
     1     1     2    2
     2     1     3    1
     3     1     4    1
     4     3     5    1
     5     3     6    1
     6     3     7    1
     7     4     8    1
     8     4     9    1
     9     4    10    1

