DMS_1_A_402
  -ISIS-            3D

 10  9  0  0  0  0  0  0  0  0  1 V2000
    6.3770    0.5540   19.2410 S   0  0  0  0  0
    6.5180    0.2910   17.7790 O   0  0  0  0  0
    4.9100    1.5270   19.4320 C   0  0  0  0  0
    5.7790   -0.9450   19.9720 C   0  0  0  0  0
    4.6742    1.6455   20.5095 H   0  0  0  0  0
    4.0546    1.0429   18.9177 H   0  0  0  0  0
    5.0754    2.5307   18.9900 H   0  0  0  0  0
    5.5248   -0.7692   21.0373 H   0  0  0  0  0
    6.5697   -1.7209   19.9164 H   0  0  0  0  0
    4.8799   -1.3069   19.4323 H   0  0  0  0  0
  1  2  2  0  0  0
  1  3  1  0  0  0
  1  4  1  0  0  0
  3  5  1  0  0  0
  3  6  1  0  0  0
  3  7  1  0  0  0
  4  8  1  0  0  0
  4  9  1  0  0  0
  4 10  1  0  0  0
M  END
$$$$
