DMS_2_A_403
  -ISIS-            3D

 10  9  0  0  0  0  0  0  0  0  1 V2000
   -6.7350  -28.3250  -21.5180 S   0  0  0  0  0
   -7.6890  -27.3180  -22.0380 O   0  0  0  0  0
   -5.2950  -28.2230  -22.5490 C   0  0  0  0  0
   -6.0280  -27.6220  -20.0550 C   0  0  0  0  0
   -4.4837  -28.8505  -22.1263 H   0  0  0  0  0
   -4.9474  -27.1725  -22.6268 H   0  0  0  0  0
   -5.5435  -28.5965  -23.5635 H   0  0  0  0  0
   -5.1988  -28.2630  -19.6914 H   0  0  0  0  0
   -6.8045  -27.5611  -19.2652 H   0  0  0  0  0
   -5.6433  -26.6023  -20.2611 H   0  0  0  0  0
  1  2  2  0  0  0
  1  3  1  0  0  0
  1  4  1  0  0  0
  3  5  1  0  0  0
  3  6  1  0  0  0
  3  7  1  0  0  0
  4  8  1  0  0  0
  4  9  1  0  0  0
  4 10  1  0  0  0
M  END
$$$$
