@<TRIPOS>MOLECULE
DMS_2_A_403
 10 9 0 0 0
SMALL
NO_CHARGES

@<TRIPOS>ATOM
      1 S          -6.7350  -28.3250  -21.5180 S.o    403  DMS403      0.0000
      2 O          -7.6890  -27.3180  -22.0380 O.2    403  DMS403      0.0000
      3 C1         -5.2950  -28.2230  -22.5490 C.3    403  DMS403      0.0000
      4 C2         -6.0280  -27.6220  -20.0550 C.3    403  DMS403      0.0000
      5 H          -4.4837  -28.8505  -22.1263 H      403  DMS403      0.0000
      6 H          -4.9474  -27.1725  -22.6268 H      403  DMS403      0.0000
      7 H          -5.5435  -28.5965  -23.5635 H      403  DMS403      0.0000
      8 H          -5.1988  -28.2630  -19.6914 H      403  DMS403      0.0000
      9 H          -6.8045  -27.5611  -19.2652 H      403  DMS403      0.0000
     10 H          -5.6433  -26.6023  -20.2611 H      403  DMS403      0.0000
@<TRIPOS>BOND
     1     1     2    2
     2     1     3    1
     3     1     4    1
     4     3     5    1
     5     3     6    1
     6     3     7    1
     7     4     8    1
     8     4     9    1
     9     4    10    1

