@<TRIPOS>MOLECULE
IMD_2_A_404
 9 9 0 0 0
SMALL
NO_CHARGES

@<TRIPOS>ATOM
      1 N1         -5.6090   -2.5910    6.1020 N.ar   404  IMD404      0.0000
      2 C2         -6.0880   -1.6930    5.2430 C.ar   404  IMD404      0.0000
      3 N3         -6.5650   -0.6800    5.9350 N.ar   404  IMD404      0.0000
      4 C4         -6.5230   -0.9910    7.2580 C.ar   404  IMD404      0.0000
      5 C5         -5.9520   -2.1990    7.3630 C.ar   404  IMD404      0.0000
      6 H          -5.1152   -3.4575    5.8548 H      404  IMD404      0.0000
      7 H          -6.0474   -1.6588    4.1467 H      404  IMD404      0.0000
      8 H          -6.9194   -0.2867    7.9985 H      404  IMD404      0.0000
      9 H          -5.7430   -2.7629    8.2839 H      404  IMD404      0.0000
@<TRIPOS>BOND
     1     1     2   ar
     2     1     5   ar
     3     1     6    1
     4     2     3   ar
     5     2     7    1
     6     3     4   ar
     7     4     5   ar
     8     4     8    1
     9     5     9    1

