@<TRIPOS>MOLECULE
4SV_1_A_201
 15 15 0 0 0
SMALL
NO_CHARGES

@<TRIPOS>ATOM
      1 O2        -45.8930  -29.6050    2.0840 O.co2  201  4SV201     -0.5000
      2 C6        -45.1710  -29.5290    3.0960 C.2    201  4SV201      0.0000
      3 O1        -43.9100  -29.4630    3.0440 O.co2  201  4SV201     -0.5000
      4 C5        -45.9080  -29.4680    4.3820 C.ar   201  4SV201      0.0000
      5 C1        -45.3130  -29.6160    5.6210 C.ar   201  4SV201      0.0000
      6 N1        -43.9080  -29.8650    5.8330 N.3    201  4SV201      0.0000
      7 C4        -47.2810  -29.2060    4.2780 C.ar   201  4SV201      0.0000
      8 C3        -47.9640  -29.1080    5.4230 C.ar   201  4SV201      0.0000
      9 N2        -47.3540  -29.2850    6.5840 N.ar   201  4SV201      0.0000
     10 C2        -46.0990  -29.5220    6.7300 C.ar   201  4SV201      0.0000
     11 H         -43.3516  -29.8683    4.9581 H      201  4SV201      0.0000
     12 H         -43.5699  -30.0119    6.7928 H      201  4SV201      0.0000
     13 H         -47.7958  -29.0723    3.3133 H      201  4SV201      0.0000
     14 H         -49.0457  -28.8952    5.4240 H      201  4SV201      0.0000
     15 H         -45.6916  -29.6412    7.7462 H      201  4SV201      0.0000
@<TRIPOS>BOND
     1     1     2   ar
     2     2     3   ar
     3     2     4    1
     4     4     5   ar
     5     4     7   ar
     6     5     6    1
     7     5    10   ar
     8     6    11    1
     9     6    12    1
    10     7     8   ar
    11     7    13    1
    12     8     9   ar
    13     8    14    1
    14     9    10   ar
    15    10    15    1

