2CL_1_A_201
  -ISIS-            3D

 17 17  0  0  0  0  0  0  0  0  1 V2000
  -43.8090  -30.6420    1.2430 C   0  0  0  0  0
  -44.7880  -29.6800    1.2930 C   0  0  0  0  0
  -44.4760  -28.3550    1.1640 C   0  0  0  0  0
  -43.1690  -27.9810    0.9950 C   0  0  0  0  0
  -42.1680  -28.9200    0.9660 C   0  0  0  0  0
  -42.4920  -30.2420    1.0650 C   0  0  0  0  0
  -44.1840  -32.1230    1.3710 C   0  0  0  0  0
  -44.0620  -32.7430    2.7650 C   0  0  0  0  0
  -46.4710  -30.1550    1.5370 Cl  0  0  0  0  0
  -41.1990  -31.4550    1.0070 Cl  0  0  0  0  0
  -44.3300  -33.9760    2.9070 O   0  0  0  0  0
  -43.7130  -32.0360    3.7330 O   0  0  0  0  0
  -45.2659  -27.5858    1.1984 H   0  0  0  0  0
  -42.9164  -26.9120    0.8915 H   0  0  0  0  0
  -41.1182  -28.6022    0.8505 H   0  0  0  0  0
  -43.5491  -32.7152    0.6733 H   0  0  0  0  0
  -45.2133  -32.3048    0.9942 H   0  0  0  0  0
  1  2  2  0  0  0
  1  6  1  0  0  0
  1  7  1  0  0  0
  2  3  1  0  0  0
  2  9  1  0  0  0
  3  4  2  0  0  0
  3 13  1  0  0  0
  4  5  1  0  0  0
  4 14  1  0  0  0
  5  6  2  0  0  0
  5 15  1  0  0  0
  6 10  1  0  0  0
  7  8  1  0  0  0
  7 16  1  0  0  0
  7 17  1  0  0  0
  8 11  2  0  0  0
  8 12  2  0  0  0
M  END
$$$$
