2SX_1_A_201
  -ISIS-            3D

 21 22  0  0  0  0  0  0  0  0  1 V2000
  -44.3360  -33.0360    2.4320 O   0  0  0  0  0
  -43.7820  -31.9640    2.3910 C   0  0  0  0  0
  -43.4350  -31.4080    3.4090 O   0  0  0  0  0
  -43.4640  -31.4350    0.9980 C   0  0  0  0  0
  -43.4680  -29.9460    0.8320 C   0  0  0  0  0
  -44.5790  -29.1130    0.5290 C   0  0  0  0  0
  -45.8920  -29.4160    0.3260 C   0  0  0  0  0
  -46.7620  -28.4360    0.0340 C   0  0  0  0  0
  -48.6460  -28.7480   -0.3480 Br  0  0  0  0  0
  -42.4010  -29.0930    0.9570 C   0  0  0  0  0
  -42.8170  -27.8880    0.7570 N   0  0  0  0  0
  -44.1070  -27.8090    0.4950 C   0  0  0  0  0
  -45.0130  -26.7680    0.1820 C   0  0  0  0  0
  -46.3320  -27.1410   -0.0250 C   0  0  0  0  0
  -44.1740  -31.8715    0.2578 H   0  0  0  0  0
  -42.4593  -31.8157    0.6995 H   0  0  0  0  0
  -46.2353  -30.4617    0.3857 H   0  0  0  0  0
  -41.3444  -29.2830    1.1889 H   0  0  0  0  0
  -42.0277  -26.8345    0.7978 H   0  0  0  0  0
  -44.6808  -25.7200    0.1179 H   0  0  0  0  0
  -47.0556  -26.3403   -0.2599 H   0  0  0  0  0
  1  2  2  0  0  0
  2  3  2  0  0  0
  2  4  1  0  0  0
  4  5  1  0  0  0
  4 15  1  0  0  0
  4 16  1  0  0  0
  5  6  2  0  0  0
  5 10  1  0  0  0
  6  7  1  0  0  0
  6 12  1  0  0  0
  7  8  2  0  0  0
  7 17  1  0  0  0
  8  9  1  0  0  0
  8 14  1  0  0  0
 10 11  2  0  0  0
 10 18  1  0  0  0
 11 12  1  0  0  0
 11 19  1  0  0  0
 12 13  1  0  0  0
 13 14  1  0  0  0
 13 20  1  0  0  0
 14 21  1  0  0  0
M  END
$$$$
