@<TRIPOS>MOLECULE
2SX_1_A_201
 21 22 0 0 0
SMALL
NO_CHARGES

@<TRIPOS>ATOM
      1 O14       -44.3360  -33.0360    2.4320 O.co2  201  2SX201     -0.5000
      2 C12       -43.7820  -31.9640    2.3910 C.2    201  2SX201      0.0000
      3 O13       -43.4350  -31.4080    3.4090 O.co2  201  2SX201     -0.5000
      4 C11       -43.4640  -31.4350    0.9980 C.3    201  2SX201      0.0000
      5 C9        -43.4680  -29.9460    0.8320 C.ar   201  2SX201      0.0000
      6 C5        -44.5790  -29.1130    0.5290 C.ar   201  2SX201      0.0000
      7 C4        -45.8920  -29.4160    0.3260 C.ar   201  2SX201      0.0000
      8 C1        -46.7620  -28.4360    0.0340 C.ar   201  2SX201      0.0000
      9 BR1       -48.6460  -28.7480   -0.3480 Br     201  2SX201      0.0000
     10 C8        -42.4010  -29.0930    0.9570 C.ar   201  2SX201      0.0000
     11 N7        -42.8170  -27.8880    0.7570 N.ar   201  2SX201      0.0000
     12 C6        -44.1070  -27.8090    0.4950 C.ar   201  2SX201      0.0000
     13 C3        -45.0130  -26.7680    0.1820 C.ar   201  2SX201      0.0000
     14 C2        -46.3320  -27.1410   -0.0250 C.ar   201  2SX201      0.0000
     15 H         -44.1740  -31.8715    0.2578 H      201  2SX201      0.0000
     16 H         -42.4593  -31.8157    0.6995 H      201  2SX201      0.0000
     17 H         -46.2353  -30.4617    0.3857 H      201  2SX201      0.0000
     18 H         -41.3444  -29.2830    1.1889 H      201  2SX201      0.0000
     19 H         -42.0277  -26.8345    0.7978 H      201  2SX201      0.0000
     20 H         -44.6808  -25.7200    0.1179 H      201  2SX201      0.0000
     21 H         -47.0556  -26.3403   -0.2599 H      201  2SX201      0.0000
@<TRIPOS>BOND
     1     1     2   ar
     2     2     3   ar
     3     2     4    1
     4     4     5    1
     5     4    15    1
     6     4    16    1
     7     5     6   ar
     8     5    10   ar
     9     6     7   ar
    10     6    12   ar
    11     7     8   ar
    12     7    17    1
    13     8     9    1
    14     8    14   ar
    15    10    11   ar
    16    10    18    1
    17    11    12   ar
    18    11    19    1
    19    12    13   ar
    20    13    14   ar
    21    13    20    1
    22    14    21    1

