@<TRIPOS>MOLECULE
NHE_1_A_202
 29 29 0 0 0
SMALL
NO_CHARGES

@<TRIPOS>ATOM
      1 C3'       -14.1250   -9.6970   -6.9230 C.3    202  NHE202      0.0000
      2 C2'       -14.2130   -8.1940   -6.6610 C.3    202  NHE202      0.0000
      3 C1'       -13.5040   -7.8310   -5.3650 C.3    202  NHE202      0.0000
      4 C6'       -12.0140   -8.1360   -5.4540 C.3    202  NHE202      0.0000
      5 N         -13.7530   -6.4420   -4.9620 N.pl3  202  NHE202      0.0000
      6 C1        -13.2520   -6.0780   -3.6390 C.3    202  NHE202      0.0000
      7 C2        -13.7600   -4.7140   -3.2020 C.3    202  NHE202      0.0000
      8 S         -13.4390   -4.4680   -1.4790 S.3    202  NHE202      0.0000
      9 O1        -14.1100   -3.2570   -1.1000 O.co2  202  NHE202     -1.0000
     10 O2        -12.0180   -4.5590   -1.3060 O.co2  202  NHE202      0.0000
     11 O3        -14.1250   -5.6950   -0.8290 O.co2  202  NHE202      0.0000
     12 C5'       -11.7200   -9.1120   -6.5920 C.3    202  NHE202      0.0000
     13 C4'       -12.7380  -10.2340   -6.6240 C.3    202  NHE202      0.0000
     14 H         -14.3910   -9.8957   -7.9874 H      202  NHE202      0.0000
     15 H         -14.8784  -10.2401   -6.3063 H      202  NHE202      0.0000
     16 H         -15.2857   -7.8972   -6.6014 H      202  NHE202      0.0000
     17 H         -13.7834   -7.6191   -7.5125 H      202  NHE202      0.0000
     18 H         -13.9427   -8.4858   -4.5728 H      202  NHE202      0.0000
     19 H         -11.6535   -8.5549   -4.4863 H      202  NHE202      0.0000
     20 H         -11.4261   -7.2073   -5.6356 H      202  NHE202      0.0000
     21 H         -13.3883   -5.8004   -5.6622 H      202  NHE202      0.0000
     22 H         -12.1396   -6.0861   -3.6336 H      202  NHE202      0.0000
     23 H         -13.5839   -6.8560   -2.9174 H      202  NHE202      0.0000
     24 H         -14.8588   -4.6262   -3.3345 H      202  NHE202      0.0000
     25 H         -13.2748   -3.8832   -3.7549 H      202  NHE202      0.0000
     26 H         -10.6975   -9.5359   -6.4564 H      202  NHE202      0.0000
     27 H         -11.7010   -8.5816   -7.5718 H      202  NHE202      0.0000
     28 H         -12.4511  -10.9945   -7.3867 H      202  NHE202      0.0000
     29 H         -12.7368  -10.7612   -5.6415 H      202  NHE202      0.0000
@<TRIPOS>BOND
     1     1     2    1
     2     1    13    1
     3     1    14    1
     4     1    15    1
     5     2     3    1
     6     2    16    1
     7     2    17    1
     8     3     4    1
     9     3     5    1
    10     3    18    1
    11     4    12    1
    12     4    19    1
    13     4    20    1
    14     5     6    1
    15     5    21    1
    16     6     7    1
    17     6    22    1
    18     6    23    1
    19     7     8    1
    20     7    24    1
    21     7    25    1
    22     8     9    1
    23     8    10    2
    24     8    11    2
    25    12    13    1
    26    12    26    1
    27    12    27    1
    28    13    28    1
    29    13    29    1

