NHE_1_A_202
  -ISIS-            3D

 29 29  0  0  0  0  0  0  0  0  1 V2000
  -14.1250   -9.6970   -6.9230 C   0  0  0  0  0
  -14.2130   -8.1940   -6.6610 C   0  0  0  0  0
  -13.5040   -7.8310   -5.3650 C   0  0  0  0  0
  -12.0140   -8.1360   -5.4540 C   0  0  0  0  0
  -13.7530   -6.4420   -4.9620 N   0  0  0  0  0
  -13.2520   -6.0780   -3.6390 C   0  0  0  0  0
  -13.7600   -4.7140   -3.2020 C   0  0  0  0  0
  -13.4390   -4.4680   -1.4790 S   0  0  0  0  0
  -14.1100   -3.2570   -1.1000 O   0  5  0  0  0
  -12.0180   -4.5590   -1.3060 O   0  0  0  0  0
  -14.1250   -5.6950   -0.8290 O   0  0  0  0  0
  -11.7200   -9.1120   -6.5920 C   0  0  0  0  0
  -12.7380  -10.2340   -6.6240 C   0  0  0  0  0
  -14.3910   -9.8957   -7.9874 H   0  0  0  0  0
  -14.8784  -10.2401   -6.3063 H   0  0  0  0  0
  -15.2857   -7.8972   -6.6014 H   0  0  0  0  0
  -13.7834   -7.6191   -7.5125 H   0  0  0  0  0
  -13.9427   -8.4858   -4.5728 H   0  0  0  0  0
  -11.6535   -8.5549   -4.4863 H   0  0  0  0  0
  -11.4261   -7.2073   -5.6356 H   0  0  0  0  0
  -13.3883   -5.8004   -5.6622 H   0  0  0  0  0
  -12.1396   -6.0861   -3.6336 H   0  0  0  0  0
  -13.5839   -6.8560   -2.9174 H   0  0  0  0  0
  -14.8588   -4.6262   -3.3345 H   0  0  0  0  0
  -13.2748   -3.8832   -3.7549 H   0  0  0  0  0
  -10.6975   -9.5359   -6.4564 H   0  0  0  0  0
  -11.7010   -8.5816   -7.5718 H   0  0  0  0  0
  -12.4511  -10.9945   -7.3867 H   0  0  0  0  0
  -12.7368  -10.7612   -5.6415 H   0  0  0  0  0
  1  2  1  0  0  0
  1 13  1  0  0  0
  1 14  1  0  0  0
  1 15  1  0  0  0
  2  3  1  0  0  0
  2 16  1  0  0  0
  2 17  1  0  0  0
  3  4  1  0  0  0
  3  5  1  0  0  0
  3 18  1  0  0  0
  4 12  1  0  0  0
  4 19  1  0  0  0
  4 20  1  0  0  0
  5  6  1  0  0  0
  5 21  1  0  0  0
  6  7  1  0  0  0
  6 22  1  0  0  0
  6 23  1  0  0  0
  7  8  1  0  0  0
  7 24  1  0  0  0
  7 25  1  0  0  0
  8  9  1  0  0  0
  8 10  2  0  0  0
  8 11  2  0  0  0
 12 13  1  0  0  0
 12 26  1  0  0  0
 12 27  1  0  0  0
 13 28  1  0  0  0
 13 29  1  0  0  0
M  END
$$$$
