@<TRIPOS>MOLECULE
1PE_1_L_1603
 38 37 0 0 0
SMALL
NO_CHARGES

@<TRIPOS>ATOM
      1 OH2        26.7210   38.0300   49.9690 O.3   1603  1PE1603      0.0000
      2 C12        25.8330   39.0550   49.6180 C.3   1603  1PE1603      0.0000
      3 C22        24.4070   38.5100   49.6300 C.3   1603  1PE1603      0.0000
      4 OH3        23.4960   39.5590   49.7890 O.3   1603  1PE1603      0.0000
      5 C13        22.1870   40.8540   51.2990 C.3   1603  1PE1603      0.0000
      6 C23        23.5270   40.1650   51.0500 C.3   1603  1PE1603      0.0000
      7 OH4        22.3050   41.7610   52.3580 O.3   1603  1PE1603      0.0000
      8 C14        22.4310   44.1500   52.4670 C.3   1603  1PE1603      0.0000
      9 C24        21.5590   42.9300   52.1740 C.3   1603  1PE1603      0.0000
     10 OH5        21.9660   45.2480   51.7340 O.3   1603  1PE1603      0.0000
     11 C15        20.3000   46.8810   51.2320 C.3   1603  1PE1603      0.0000
     12 C25        20.7110   45.7180   52.1330 C.3   1603  1PE1603      0.0000
     13 OH6        19.1500   47.4880   51.7460 O.3   1603  1PE1603      0.0000
     14 C16        18.1950   48.9800   53.3510 C.3   1603  1PE1603      0.0000
     15 C26        19.3180   47.9950   53.0390 C.3   1603  1PE1603      0.0000
     16 OH7        18.4050   49.5190   54.6260 O.3   1603  1PE1603      0.0000
     17 H          27.6066   38.3657   49.9246 H     1603  1PE1603      0.0000
     18 H          26.0841   39.4496   48.6107 H     1603  1PE1603      0.0000
     19 H          25.9704   39.8882   50.3347 H     1603  1PE1603      0.0000
     20 H          24.2660   37.7612   50.4369 H     1603  1PE1603      0.0000
     21 H          24.1937   37.9871   48.6749 H     1603  1PE1603      0.0000
     22 H          21.3935   40.1128   51.5274 H     1603  1PE1603      0.0000
     23 H          21.8929   41.3653   50.3589 H     1603  1PE1603      0.0000
     24 H          24.3379   40.9212   51.0833 H     1603  1PE1603      0.0000
     25 H          23.7147   39.4238   51.8547 H     1603  1PE1603      0.0000
     26 H          23.4750   43.9495   52.1475 H     1603  1PE1603      0.0000
     27 H          22.4675   44.3775   53.5521 H     1603  1PE1603      0.0000
     28 H          20.6804   42.9001   52.8512 H     1603  1PE1603      0.0000
     29 H          21.1614   43.0029   51.1413 H     1603  1PE1603      0.0000
     30 H          20.0881   46.5164   50.2058 H     1603  1PE1603      0.0000
     31 H          21.1163   47.6282   51.1457 H     1603  1PE1603      0.0000
     32 H          20.7901   46.0210   53.1946 H     1603  1PE1603      0.0000
     33 H          19.9440   44.9201   52.0669 H     1603  1PE1603      0.0000
     34 H          17.2097   48.4684   53.3153 H     1603  1PE1603      0.0000
     35 H          18.1794   49.7967   52.5982 H     1603  1PE1603      0.0000
     36 H          20.2953   48.5147   53.1334 H     1603  1PE1603      0.0000
     37 H          19.2786   47.1776   53.7875 H     1603  1PE1603      0.0000
     38 H          17.7093   50.1356   54.8117 H     1603  1PE1603      0.0000
@<TRIPOS>BOND
     1     1     2    1
     2     1    17    1
     3     2     3    1
     4     2    18    1
     5     2    19    1
     6     3     4    1
     7     3    20    1
     8     3    21    1
     9     4     6    1
    10     5     6    1
    11     5     7    1
    12     5    22    1
    13     5    23    1
    14     6    24    1
    15     6    25    1
    16     7     9    1
    17     8     9    1
    18     8    10    1
    19     8    26    1
    20     8    27    1
    21     9    28    1
    22     9    29    1
    23    10    12    1
    24    11    12    1
    25    11    13    1
    26    11    30    1
    27    11    31    1
    28    12    32    1
    29    12    33    1
    30    13    15    1
    31    14    15    1
    32    14    16    1
    33    14    34    1
    34    14    35    1
    35    15    36    1
    36    15    37    1
    37    16    38    1

