1PE_1_L_1603
  -ISIS-            3D

 38 37  0  0  0  0  0  0  0  0  1 V2000
   26.7210   38.0300   49.9690 O   0  0  0  0  0
   25.8330   39.0550   49.6180 C   0  0  0  0  0
   24.4070   38.5100   49.6300 C   0  0  0  0  0
   23.4960   39.5590   49.7890 O   0  0  0  0  0
   22.1870   40.8540   51.2990 C   0  0  0  0  0
   23.5270   40.1650   51.0500 C   0  0  0  0  0
   22.3050   41.7610   52.3580 O   0  0  0  0  0
   22.4310   44.1500   52.4670 C   0  0  0  0  0
   21.5590   42.9300   52.1740 C   0  0  0  0  0
   21.9660   45.2480   51.7340 O   0  0  0  0  0
   20.3000   46.8810   51.2320 C   0  0  0  0  0
   20.7110   45.7180   52.1330 C   0  0  0  0  0
   19.1500   47.4880   51.7460 O   0  0  0  0  0
   18.1950   48.9800   53.3510 C   0  0  0  0  0
   19.3180   47.9950   53.0390 C   0  0  0  0  0
   18.4050   49.5190   54.6260 O   0  0  0  0  0
   27.6066   38.3657   49.9246 H   0  0  0  0  0
   26.0841   39.4496   48.6107 H   0  0  0  0  0
   25.9704   39.8882   50.3347 H   0  0  0  0  0
   24.2660   37.7612   50.4369 H   0  0  0  0  0
   24.1937   37.9871   48.6749 H   0  0  0  0  0
   21.3935   40.1128   51.5274 H   0  0  0  0  0
   21.8929   41.3653   50.3589 H   0  0  0  0  0
   24.3379   40.9212   51.0833 H   0  0  0  0  0
   23.7147   39.4238   51.8547 H   0  0  0  0  0
   23.4750   43.9495   52.1475 H   0  0  0  0  0
   22.4675   44.3775   53.5521 H   0  0  0  0  0
   20.6804   42.9001   52.8512 H   0  0  0  0  0
   21.1614   43.0029   51.1413 H   0  0  0  0  0
   20.0881   46.5164   50.2058 H   0  0  0  0  0
   21.1163   47.6282   51.1457 H   0  0  0  0  0
   20.7901   46.0210   53.1946 H   0  0  0  0  0
   19.9440   44.9201   52.0669 H   0  0  0  0  0
   17.2097   48.4684   53.3153 H   0  0  0  0  0
   18.1794   49.7967   52.5982 H   0  0  0  0  0
   20.2953   48.5147   53.1334 H   0  0  0  0  0
   19.2786   47.1776   53.7875 H   0  0  0  0  0
   17.7093   50.1356   54.8117 H   0  0  0  0  0
  1  2  1  0  0  0
  1 17  1  0  0  0
  2  3  1  0  0  0
  2 18  1  0  0  0
  2 19  1  0  0  0
  3  4  1  0  0  0
  3 20  1  0  0  0
  3 21  1  0  0  0
  4  6  1  0  0  0
  5  6  1  0  0  0
  5  7  1  0  0  0
  5 22  1  0  0  0
  5 23  1  0  0  0
  6 24  1  0  0  0
  6 25  1  0  0  0
  7  9  1  0  0  0
  8  9  1  0  0  0
  8 10  1  0  0  0
  8 26  1  0  0  0
  8 27  1  0  0  0
  9 28  1  0  0  0
  9 29  1  0  0  0
 10 12  1  0  0  0
 11 12  1  0  0  0
 11 13  1  0  0  0
 11 30  1  0  0  0
 11 31  1  0  0  0
 12 32  1  0  0  0
 12 33  1  0  0  0
 13 15  1  0  0  0
 14 15  1  0  0  0
 14 16  1  0  0  0
 14 34  1  0  0  0
 14 35  1  0  0  0
 15 36  1  0  0  0
 15 37  1  0  0  0
 16 38  1  0  0  0
M  END
$$$$
