@<TRIPOS>MOLECULE
DMS_1_E_905
 10 9 0 0 0
SMALL
NO_CHARGES

@<TRIPOS>ATOM
      1 S         -14.2100   24.2980   12.3580 S.o    905  DMS905      0.0000
      2 O         -14.8510   24.1770   13.7020 O.2    905  DMS905      0.0000
      3 C1        -14.5280   25.9570   11.6960 C.3    905  DMS905      0.0000
      4 C2        -15.1310   23.2860   11.1670 C.3    905  DMS905      0.0000
      5 H         -14.1168   26.0313   10.6685 H      905  DMS905      0.0000
      6 H         -14.0331   26.7098   12.3430 H      905  DMS905      0.0000
      7 H         -15.6200   26.1508   11.6752 H      905  DMS905      0.0000
      8 H         -14.7047   23.4270   10.1528 H      905  DMS905      0.0000
      9 H         -16.1994   23.5842   11.1667 H      905  DMS905      0.0000
     10 H         -15.0475   22.2177   11.4533 H      905  DMS905      0.0000
@<TRIPOS>BOND
     1     1     2    2
     2     1     3    1
     3     1     4    1
     4     3     5    1
     5     3     6    1
     6     3     7    1
     7     4     8    1
     8     4     9    1
     9     4    10    1

