@<TRIPOS>MOLECULE
DMS_1_E_902
 10 9 0 0 0
SMALL
NO_CHARGES

@<TRIPOS>ATOM
      1 S           8.5450   30.7740   13.7480 S.o    902  DMS902      0.0000
      2 O           7.2660   30.5040   14.4740 O.2    902  DMS902      0.0000
      3 C1          9.0420   32.4990   14.0120 C.3    902  DMS902      0.0000
      4 C2          9.9090   29.9170   14.5830 C.3    902  DMS902      0.0000
      5 H          10.0231   32.6808   13.5275 H      902  DMS902      0.0000
      6 H           9.1190   32.7061   15.0991 H      902  DMS902      0.0000
      7 H           8.2825   33.1709   13.5627 H      902  DMS902      0.0000
      8 H          10.8667   30.1687   14.0833 H      902  DMS902      0.0000
      9 H           9.7430   28.8219   14.5242 H      902  DMS902      0.0000
     10 H           9.9517   30.2257   15.6476 H      902  DMS902      0.0000
@<TRIPOS>BOND
     1     1     2    2
     2     1     3    1
     3     1     4    1
     4     3     5    1
     5     3     6    1
     6     3     7    1
     7     4     8    1
     8     4     9    1
     9     4    10    1

