@<TRIPOS>MOLECULE
DMS_1_L_1602
 10 9 0 0 0
SMALL
NO_CHARGES

@<TRIPOS>ATOM
      1 S          14.7680   48.9230   40.5650 S.o   1602  DMS1602      0.0000
      2 O          13.5580   48.9410   41.4360 O.2   1602  DMS1602      0.0000
      3 C1         16.1830   49.2370   41.6480 C.3   1602  DMS1602      0.0000
      4 C2         15.1120   47.2250   40.0250 C.3   1602  DMS1602      0.0000
      5 H          17.1218   49.1625   41.0620 H     1602  DMS1602      0.0000
      6 H          16.1997   48.4942   42.4718 H     1602  DMS1602      0.0000
      7 H          16.0993   50.2575   42.0745 H     1602  DMS1602      0.0000
      8 H          16.0691   47.2013   39.4650 H     1602  DMS1602      0.0000
      9 H          14.2920   46.8788   39.3632 H     1602  DMS1602      0.0000
     10 H          15.1800   46.5563   40.9075 H     1602  DMS1602      0.0000
@<TRIPOS>BOND
     1     1     2    2
     2     1     3    1
     3     1     4    1
     4     3     5    1
     5     3     6    1
     6     3     7    1
     7     4     8    1
     8     4     9    1
     9     4    10    1

