DMS_1_E_902
  -ISIS-            3D

 10  9  0  0  0  0  0  0  0  0  1 V2000
    8.5450   30.7740   13.7480 S   0  0  0  0  0
    7.2660   30.5040   14.4740 O   0  0  0  0  0
    9.0420   32.4990   14.0120 C   0  0  0  0  0
    9.9090   29.9170   14.5830 C   0  0  0  0  0
   10.0231   32.6808   13.5275 H   0  0  0  0  0
    9.1190   32.7061   15.0991 H   0  0  0  0  0
    8.2825   33.1709   13.5627 H   0  0  0  0  0
   10.8667   30.1687   14.0833 H   0  0  0  0  0
    9.7430   28.8219   14.5242 H   0  0  0  0  0
    9.9517   30.2257   15.6476 H   0  0  0  0  0
  1  2  2  0  0  0
  1  3  1  0  0  0
  1  4  1  0  0  0
  3  5  1  0  0  0
  3  6  1  0  0  0
  3  7  1  0  0  0
  4  8  1  0  0  0
  4  9  1  0  0  0
  4 10  1  0  0  0
M  END
$$$$
