DMS_1_H_302
  -ISIS-            3D

 10  9  0  0  0  0  0  0  0  0  1 V2000
   47.2410   26.3130   50.1660 S   0  0  0  0  0
   47.4560   27.7750   50.3900 O   0  0  0  0  0
   48.5990   25.6540   49.1610 C   0  0  0  0  0
   45.8480   26.0800   49.0270 C   0  0  0  0  0
   48.4085   24.5847   48.9354 H   0  0  0  0  0
   49.5490   25.7443   49.7265 H   0  0  0  0  0
   48.6791   26.2262   48.2143 H   0  0  0  0  0
   45.7273   24.9999   48.8047 H   0  0  0  0  0
   46.0343   26.6359   48.0855 H   0  0  0  0  0
   44.9207   26.4610   49.5016 H   0  0  0  0  0
  1  2  2  0  0  0
  1  3  1  0  0  0
  1  4  1  0  0  0
  3  5  1  0  0  0
  3  6  1  0  0  0
  3  7  1  0  0  0
  4  8  1  0  0  0
  4  9  1  0  0  0
  4 10  1  0  0  0
M  END
$$$$
