MLI_1_E_903
  -ISIS-            3D

  9  8  0  0  0  0  0  0  0  0  1 V2000
   -1.7020   33.4560   -1.7680 C   0  0  0  0  0
   -3.2050   33.5980   -2.0250 C   0  0  0  0  0
   -0.9830   34.7960   -1.5970 C   0  0  0  0  0
   -3.8300   32.6500   -2.5680 O   0  0  0  0  0
   -3.8340   34.6370   -1.6910 O   0  0  0  0  0
   -1.5270   35.8830   -1.9270 O   0  0  0  0  0
    0.1810   34.8120   -1.1160 O   0  0  0  0  0
   -1.2326   32.9014   -2.6123 H   0  0  0  0  0
   -1.5507   32.8366   -0.8545 H   0  0  0  0  0
  1  2  1  0  0  0
  1  3  1  0  0  0
  1  8  1  0  0  0
  1  9  1  0  0  0
  2  4  2  0  0  0
  2  5  2  0  0  0
  3  6  2  0  0  0
  3  7  2  0  0  0
M  END
$$$$
