@<TRIPOS>MOLECULE
MLI_1_H_305
 9 8 0 0 0
SMALL
NO_CHARGES

@<TRIPOS>ATOM
      1 C1         34.0270   29.9680   49.1440 C.3    305  MLI305      0.0000
      2 C2         34.9910   31.1520   49.2110 C.2    305  MLI305      0.0000
      3 C3         32.9420   30.2460   48.1060 C.2    305  MLI305      0.0000
      4 O6         35.1060   31.9280   48.2260 O.co2  305  MLI305     -0.5000
      5 O7         35.6720   31.3510   50.2510 O.co2  305  MLI305     -0.5000
      6 O8         33.2190   30.2130   46.8780 O.co2  305  MLI305     -0.5000
      7 O9         31.7690   30.5060   48.4810 O.co2  305  MLI305     -0.5000
      8 H          33.5716   29.7864   50.1436 H      305  MLI305      0.0000
      9 H          34.5880   29.0469   48.8672 H      305  MLI305      0.0000
@<TRIPOS>BOND
     1     1     2    1
     2     1     3    1
     3     1     8    1
     4     1     9    1
     5     2     4   ar
     6     2     5   ar
     7     3     6   ar
     8     3     7   ar

