@<TRIPOS>MOLECULE
4BX_1_A_201
 23 24 0 0 0
SMALL
NO_CHARGES

@<TRIPOS>ATOM
      1 C1        -47.6420  -28.6030    5.0250 C.ar   201  4BX201      0.0000
      2 C2        -48.3210  -28.4380    3.8280 C.ar   201  4BX201      0.0000
      3 C3        -49.6920  -28.6460    3.7470 C.ar   201  4BX201      0.0000
      4 C4        -48.3280  -28.9850    6.1630 C.ar   201  4BX201      0.0000
      5 N5        -50.6050  -29.6100    7.0090 N.ar   201  4BX201      0.0000
      6 C6        -49.7140  -29.2120    6.0960 C.ar   201  4BX201      0.0000
      7 C7        -50.3850  -29.0510    4.9090 C.ar   201  4BX201      0.0000
      8 N8        -51.6790  -29.3660    5.1520 N.ar   201  4BX201      0.0000
      9 C9        -51.7830  -29.6850    6.4210 C.ar   201  4BX201      0.0000
     10 C10       -53.0390  -30.0250    7.1630 C.3    201  4BX201      0.0000
     11 C11       -53.7470  -28.6960    7.3830 C.3    201  4BX201      0.0000
     12 C12       -54.9960  -28.7280    8.2080 C.2    201  4BX201      0.0000
     13 O13       -55.7420  -29.7270    8.2000 O.co2  201  4BX201     -0.5000
     14 O14       -55.3030  -27.7160    8.8630 O.co2  201  4BX201     -0.5000
     15 H         -46.5535  -28.4293    5.0701 H      201  4BX201      0.0000
     16 H         -47.7647  -28.1329    2.9252 H      201  4BX201      0.0000
     17 H         -50.2322  -28.5078    2.7964 H      201  4BX201      0.0000
     18 H         -47.7976  -29.1192    7.1199 H      201  4BX201      0.0000
     19 H         -52.6534  -29.3574    4.2664 H      201  4BX201      0.0000
     20 H         -52.8014  -30.5155    8.1337 H      201  4BX201      0.0000
     21 H         -53.6669  -30.7262    6.5689 H      201  4BX201      0.0000
     22 H         -54.0065  -28.2496    6.3944 H      201  4BX201      0.0000
     23 H         -53.0348  -27.9831    7.8622 H      201  4BX201      0.0000
@<TRIPOS>BOND
     1     1     2   ar
     2     1     4   ar
     3     1    15    1
     4     2     3   ar
     5     2    16    1
     6     3     7   ar
     7     3    17    1
     8     4     6   ar
     9     4    18    1
    10     5     6   ar
    11     5     9   ar
    12     6     7   ar
    13     7     8   ar
    14     8     9   ar
    15     8    19    1
    16     9    10    1
    17    10    11    1
    18    10    20    1
    19    10    21    1
    20    11    12    1
    21    11    22    1
    22    11    23    1
    23    12    13   ar
    24    12    14   ar

