DMS_2_A_402
  -ISIS-            3D

 10  9  0  0  0  0  0  0  0  0  1 V2000
   -6.1400   -0.9800    6.2540 S   0  0  0  0  0
   -6.9940   -0.7020    7.4130 O   0  0  0  0  0
   -7.2330   -1.0380    4.8440 C   0  0  0  0  0
   -5.7680   -2.7010    6.3380 C   0  0  0  0  0
   -6.6771   -1.3932    3.9523 H   0  0  0  0  0
   -7.6232   -0.0197    4.6410 H   0  0  0  0  0
   -8.0858   -1.7188    5.0438 H   0  0  0  0  0
   -5.2472   -3.0199    5.4121 H   0  0  0  0  0
   -6.6975   -3.2943    6.4604 H   0  0  0  0  0
   -5.1026   -2.8919    7.2047 H   0  0  0  0  0
  1  2  2  0  0  0
  1  3  1  0  0  0
  1  4  1  0  0  0
  3  5  1  0  0  0
  3  6  1  0  0  0
  3  7  1  0  0  0
  4  8  1  0  0  0
  4  9  1  0  0  0
  4 10  1  0  0  0
M  END
$$$$
