@<TRIPOS>MOLECULE
DMS_2_A_402
 10 9 0 0 0
SMALL
NO_CHARGES

@<TRIPOS>ATOM
      1 S          -6.1400   -0.9800    6.2540 S.o    402  DMS402      0.0000
      2 O          -6.9940   -0.7020    7.4130 O.2    402  DMS402      0.0000
      3 C1         -7.2330   -1.0380    4.8440 C.3    402  DMS402      0.0000
      4 C2         -5.7680   -2.7010    6.3380 C.3    402  DMS402      0.0000
      5 H          -6.6771   -1.3932    3.9523 H      402  DMS402      0.0000
      6 H          -7.6232   -0.0197    4.6410 H      402  DMS402      0.0000
      7 H          -8.0858   -1.7188    5.0438 H      402  DMS402      0.0000
      8 H          -5.2472   -3.0199    5.4121 H      402  DMS402      0.0000
      9 H          -6.6975   -3.2943    6.4604 H      402  DMS402      0.0000
     10 H          -5.1026   -2.8919    7.2047 H      402  DMS402      0.0000
@<TRIPOS>BOND
     1     1     2    2
     2     1     3    1
     3     1     4    1
     4     3     5    1
     5     3     6    1
     6     3     7    1
     7     4     8    1
     8     4     9    1
     9     4    10    1

